/*---------------------------------------------------------------------------*\
| =========                 |                                                 |
| \\      /  F ield         | OpenFOAM: The Open Source CFD Toolbox           |
|  \\    /   O peration     | Version:  2.1.0                                 |
|   \\  /    A nd           | Web:      www.OpenFOAM.org                      |
|    \\/     M anipulation  |                                                 |
\*---------------------------------------------------------------------------*/
Build  : 2.1.0-bd7367f93311
Exec   : snappyHexMesh -overwrite
Date   : Nov 14 2014
Time   : 10:08:59
Host   : "n0244.ten.osc.edu"
PID    : 13209
Case   : /nfs/05/ndem0010/crimson_files/ContainerFill/15
nProcs : 1
sigFpe : Enabling floating point exception trapping (FOAM_SIGFPE).
fileModificationChecking : Monitoring run-time modified files using timeStampMaster
allowSystemOperations : Disallowing user-supplied system call operations

// * * * * * * * * * * * * * * * * * * * * * * * * * * * * * * * * * * * * * //
Create time

Create mesh for time = 0

// using new solver syntax:
U
{
    solver          PBiCG;
    preconditioner  DILU;
    tolerance       0.001;
    relTol          0.01;
}

// using new solver syntax:
k
{
    solver          PBiCG;
    preconditioner  DILU;
    tolerance       0.001;
    relTol          0.01;
}

// using new solver syntax:
epsilon
{
    solver          PBiCG;
    preconditioner  DILU;
    tolerance       0.001;
    relTol          0.01;
}

// using new solver syntax:
omega
{
    solver          PBiCG;
    preconditioner  DILU;
    tolerance       1;
    relTol          1;
}

// using new solver syntax:
nuTilda
{
    solver          PBiCG;
    preconditioner  DILU;
    tolerance       1;
    relTol          1;
}

// using new solver syntax:
UFinal
{
    solver          PBiCG;
    preconditioner  DILU;
    tolerance       0.001;
    relTol          0.01;
}

// using new solver syntax:
kFinal
{
    solver          PBiCG;
    preconditioner  DILU;
    tolerance       0.001;
    relTol          0.01;
}

// using new solver syntax:
epsilonFinal
{
    solver          PBiCG;
    preconditioner  DILU;
    tolerance       0.001;
    relTol          0.01;
}

// using new solver syntax:
omegaFinal
{
    solver          PBiCG;
    preconditioner  DILU;
    tolerance       1;
    relTol          1;
}

// using new solver syntax:
nuTildaFinal
{
    solver          PBiCG;
    preconditioner  DILU;
    tolerance       1;
    relTol          1;
}

Read mesh in = 25.65 s

Overall mesh bounding box  : (-0.999938 -1.02 -0.49) (0.999938 1.02 1.51)
Relative tolerance         : 1e-06
Absolute matching distance : 3.48728e-06

Reading refinement surfaces.
Read refinement surfaces in = 0.01 s

Reading refinement shells.
Read refinement shells in = 0 s

Setting refinement level of surface to be consistent with shells.
Checked shell refinement in = 0 s

Reading features.
Read features in = 0 s


Determining initial surface intersections
-----------------------------------------

Edge intersection testing:
    Number of edges             : 10192500
    Number of edges to retest   : 10192500
    Number of intersected edges : 30447
Calculated surface intersections in = 20.45 s

Initial mesh : cells:3375000  faces:10192500  points:3442951
Cells per refinement level:
    0	3375000

Adding patches for surface regions
----------------------------------

Patch	Type	Region
-----	----	------
inlet1:

6	wall	inlet1_inlet1

outlet1:

7	wall	outlet1_inlet2

walls:

8	wall	walls_wall

Added patches in = 0.24 s

Selecting decompositionMethod simple

Refinement phase
----------------

Found point (0.05 0.15 0.05) in cell 912978 on processor 0

Surface refinement iteration 0
------------------------------

No cells marked for refinement since reached limit 2000000.
Determined cells to refine in = 5.43 s
Selected for refinement : 0 cells (out of 3375000)
Stopping refining since too few cells selected.


Removing mesh beyond surface intersections
------------------------------------------

Found point (0.05 0.15 0.05) in cell 912978 in global region 0 out of 1 regions.
Keeping all cells in region 0 containing point (0.05 0.15 0.05)
Selected for keeping : 3375000 cells.
Edge intersection testing:
    Number of edges             : 10192500
    Number of edges to retest   : 0
    Number of intersected edges : 30447

Shell refinement iteration 0
----------------------------

No cells marked for refinement since reached limit 2000000.
Determined cells to refine in = 9.46 s
Selected for internal refinement : 0 cells (out of 3375000)
Stopping refining since too few cells selected.


Splitting mesh at surface intersections
---------------------------------------

Introducing baffles for 30447 faces that are intersected by the surface.

Edge intersection testing:
    Number of edges             : 10222947
    Number of edges to retest   : 199807
    Number of intersected edges : 60894
Created baffles in = 9.14 s


After introducing baffles : cells:3375000  faces:10222947  points:3442951
Cells per refinement level:
    0	3375000

Introducing baffles to block off problem cells
----------------------------------------------

markFacesOnProblemCells : marked 3 additional internal faces to be converted into baffles.
Analyzed problem cells in = 6.11 s


Introducing baffles to delete problem cells.

Edge intersection testing:
    Number of edges             : 10222950
    Number of edges to retest   : 24
    Number of intersected edges : 60894
Created baffles in = 8.86 s


After introducing baffles : cells:3375000  faces:10222950  points:3442951
Cells per refinement level:
    0	3375000

Remove unreachable sections of mesh
-----------------------------------

Keeping all cells in region 0 containing point (0.05 0.15 0.05)
Selected for keeping : 3374999 cells.
Edge intersection testing:
    Number of edges             : 10222944
    Number of edges to retest   : 0
    Number of intersected edges : 60891
Split mesh in = 11.1 s


After subsetting : cells:3374999  faces:10222944  points:3442951
Cells per refinement level:
    0	3374999

Handling cells with snap problems
---------------------------------

Introducing baffles for 60891 faces that are intersected by the surface.

Edge intersection testing:
    Number of edges             : 10222944
    Number of edges to retest   : 199801
    Number of intersected edges : 60891
Created baffles in = 7.47 s


After introducing baffles : cells:3374999  faces:10222944  points:3442951
Cells per refinement level:
    0	3374999

Introducing baffles to block off problem cells
----------------------------------------------

markFacesOnProblemCells : marked 0 additional internal faces to be converted into baffles.
Analyzed problem cells in = 5.99 s


Introducing baffles to delete problem cells.

Edge intersection testing:
    Number of edges             : 10222944
    Number of edges to retest   : 0
    Number of intersected edges : 60891
Created baffles in = 7.2 s


After introducing baffles : cells:3374999  faces:10222944  points:3442951
Cells per refinement level:
    0	3374999

Remove unreachable sections of mesh
-----------------------------------

Keeping all cells in region 0 containing point (0.05 0.15 0.05)
Selected for keeping : 3374999 cells.
Edge intersection testing:
    Number of edges             : 10222944
    Number of edges to retest   : 0
    Number of intersected edges : 60891
Split mesh in = 10.79 s


After subsetting : cells:3374999  faces:10222944  points:3442951
Cells per refinement level:
    0	3374999
dupNonManifoldPoints : Found : 30211 non-manifold points (out of 3442951)
Edge intersection testing:
    Number of edges             : 10222944
    Number of edges to retest   : 0
    Number of intersected edges : 60891
getDuplicateFaces : found 0 pairs of duplicate faces.

Detected unsplittable baffles : 0

Merge refined boundary faces
----------------------------

Merging 0 sets of faces.

No faces merged ...

Merging all points on surface that
- are used by only two boundary faces and
- make an angle with a cosine of more than 0.707107.

No straight edges simplified and no points removed ...
Refined mesh : cells:3374999  faces:10222944  points:3473358
Cells per refinement level:
    0	3374999
Writing mesh to time constant
Wrote mesh in = 67.44 s.
Mesh refined in = 148.99 s.

Morphing phase
--------------

Constructing mesh displacer ...
Using mesh parameters 
{
    maxNonOrtho     65;
    maxBoundarySkewness 20;
    maxInternalSkewness 4;
    maxConcave      80;
    minFlatness     0.5;
    minVol          1e-13;
    minTetQuality   1e-30;
    minArea         -1;
    minTwist        0.02;
    minDeterminant  0.001;
    minFaceWeight   0.02;
    minVolRatio     0.01;
    minTriangleTwist -1;
    nSmoothScale    4;
    errorReduction  0.75;
}


Checking initial mesh ...
Checking faces in error :
    non-orthogonality >  65 degrees                        : 0
    faces with face pyramid volume < 1e-13                 : 0
    faces with face-decomposition tet quality < 1e-30      : 0
    faces with concavity >  80 degrees                     : 0
    faces with skewness >   4 (internal) or  20 (boundary) : 0
    faces with interpolation weights (0..1)  <  0.02       : 0
    faces with volume ratio of neighbour cells <  0.01     : 0
    faces with face twist <  0.02                          : 0
    faces on cells with determinant < 0.001                : 0
Detected 0 illegal faces (concave, zero area or negative cell pyramid volume)
Checked initial mesh in = 17.84 s


Smoothing patch points ...
Smoothing iteration 0
Found 60618 non-mainfold point(s).

Scaling iteration 0
Moving mesh using diplacement scaling : min:1  max:1
Checking faces in error :
    non-orthogonality >  65 degrees                        : 0
    faces with face pyramid volume < 1e-13                 : 0
    faces with face-decomposition tet quality < 1e-30      : 0
    faces with concavity >  80 degrees                     : 0
    faces with skewness >   4 (internal) or  20 (boundary) : 0
    faces with interpolation weights (0..1)  <  0.02       : 0
    faces with volume ratio of neighbour cells <  0.01     : 0
    faces with face twist <  0.02                          : 0
    faces on cells with determinant < 0.001                : 0
Successfully moved mesh

Smoothing iteration 1
Found 0 non-mainfold point(s).

Scaling iteration 0
Moving mesh using diplacement scaling : min:1  max:1
Checking faces in error :
    non-orthogonality >  65 degrees                        : 0
    faces with face pyramid volume < 1e-13                 : 0
    faces with face-decomposition tet quality < 1e-30      : 0
    faces with concavity >  80 degrees                     : 0
    faces with skewness >   4 (internal) or  20 (boundary) : 0
    faces with interpolation weights (0..1)  <  0.02       : 0
    faces with volume ratio of neighbour cells <  0.01     : 0
    faces with face twist <  0.02                          : 0
    faces on cells with determinant < 0.001                : 0
Successfully moved mesh

Smoothing iteration 2
Found 0 non-mainfold point(s).

Scaling iteration 0
Moving mesh using diplacement scaling : min:1  max:1
Checking faces in error :
    non-orthogonality >  65 degrees                        : 0
    faces with face pyramid volume < 1e-13                 : 0
    faces with face-decomposition tet quality < 1e-30      : 0
    faces with concavity >  80 degrees                     : 0
    faces with skewness >   4 (internal) or  20 (boundary) : 0
    faces with interpolation weights (0..1)  <  0.02       : 0
    faces with volume ratio of neighbour cells <  0.01     : 0
    faces with face twist <  0.02                          : 0
    faces on cells with determinant < 0.001                : 0
Successfully moved mesh

Patch points smoothed in = 70.56 s



Morph iteration 0
-----------------
Calculating patchDisplacement as distance to nearest surface point ...
Wanted displacement : average:0.00599641 min:5.68081e-06 max:0.0137943
Calculated surface displacement in = 0.17 s


--> FOAM Warning : Displacement (0 0.00239608 0) at mesh point 3460568 coord (0.226554 0.507604 0.66969) points through the surrounding patch faces
Smoothing displacement ...
Iteration 0
Iteration 10
Iteration 20
Displacement smoothed in = 12.7 s


Moving mesh ...

Iteration 0
Moving mesh using diplacement scaling : min:1  max:1
Checking faces in error :
    non-orthogonality >  65 degrees                        : 0
    faces with face pyramid volume < 1e-13                 : 11
    faces with face-decomposition tet quality < 1e-30      : 71
    faces with concavity >  80 degrees                     : 0
    faces with skewness >   4 (internal) or  20 (boundary) : 0
    faces with interpolation weights (0..1)  <  0.02       : 0
    faces with volume ratio of neighbour cells <  0.01     : 0
    faces with face twist <  0.02                          : 8
    faces on cells with determinant < 0.001                : 0

Iteration 1
Moving mesh using diplacement scaling : min:0.75  max:1
Checking faces in error :
    non-orthogonality >  65 degrees                        : 0
    faces with face pyramid volume < 1e-13                 : 11
    faces with face-decomposition tet quality < 1e-30      : 24
    faces with concavity >  80 degrees                     : 0
    faces with skewness >   4 (internal) or  20 (boundary) : 0
    faces with interpolation weights (0..1)  <  0.02       : 0
    faces with volume ratio of neighbour cells <  0.01     : 0
    faces with face twist <  0.02                          : 2
    faces on cells with determinant < 0.001                : 0

Iteration 2
Moving mesh using diplacement scaling : min:0.5625  max:1
Checking faces in error :
    non-orthogonality >  65 degrees                        : 0
    faces with face pyramid volume < 1e-13                 : 9
    faces with face-decomposition tet quality < 1e-30      : 17
    faces with concavity >  80 degrees                     : 0
    faces with skewness >   4 (internal) or  20 (boundary) : 0
    faces with interpolation weights (0..1)  <  0.02       : 0
    faces with volume ratio of neighbour cells <  0.01     : 0
    faces with face twist <  0.02                          : 5
    faces on cells with determinant < 0.001                : 0

Iteration 3
Moving mesh using diplacement scaling : min:0.421875  max:1
Checking faces in error :
    non-orthogonality >  65 degrees                        : 0
    faces with face pyramid volume < 1e-13                 : 7
    faces with face-decomposition tet quality < 1e-30      : 10
    faces with concavity >  80 degrees                     : 0
    faces with skewness >   4 (internal) or  20 (boundary) : 0
    faces with interpolation weights (0..1)  <  0.02       : 0
    faces with volume ratio of neighbour cells <  0.01     : 0
    faces with face twist <  0.02                          : 9
    faces on cells with determinant < 0.001                : 0

Iteration 4
Moving mesh using diplacement scaling : min:0.316406  max:1
Checking faces in error :
    non-orthogonality >  65 degrees                        : 0
    faces with face pyramid volume < 1e-13                 : 0
    faces with face-decomposition tet quality < 1e-30      : 11
    faces with concavity >  80 degrees                     : 0
    faces with skewness >   4 (internal) or  20 (boundary) : 4
    faces with interpolation weights (0..1)  <  0.02       : 0
    faces with volume ratio of neighbour cells <  0.01     : 0
    faces with face twist <  0.02                          : 4
    faces on cells with determinant < 0.001                : 0

Iteration 5
Displacement scaling for error reduction set to 0.
Moving mesh using diplacement scaling : min:0.237305  max:1
Checking faces in error :
    non-orthogonality >  65 degrees                        : 0
    faces with face pyramid volume < 1e-13                 : 0
    faces with face-decomposition tet quality < 1e-30      : 0
    faces with concavity >  80 degrees                     : 0
    faces with skewness >   4 (internal) or  20 (boundary) : 0
    faces with interpolation weights (0..1)  <  0.02       : 0
    faces with volume ratio of neighbour cells <  0.01     : 0
    faces with face twist <  0.02                          : 10
    faces on cells with determinant < 0.001                : 0

Iteration 6
Moving mesh using diplacement scaling : min:0  max:1
Checking faces in error :
    non-orthogonality >  65 degrees                        : 0
    faces with face pyramid volume < 1e-13                 : 0
    faces with face-decomposition tet quality < 1e-30      : 0
    faces with concavity >  80 degrees                     : 0
    faces with skewness >   4 (internal) or  20 (boundary) : 0
    faces with interpolation weights (0..1)  <  0.02       : 0
    faces with volume ratio of neighbour cells <  0.01     : 0
    faces with face twist <  0.02                          : 0
    faces on cells with determinant < 0.001                : 0
Successfully moved mesh
Moved mesh in = 66.25 s


Repatching faces according to nearest surface ...
Repatched 49 faces in = 0.41 s


Edge intersection testing:
    Number of edges             : 10222944
    Number of edges to retest   : 732650
    Number of intersected edges : 60424
Merging 13178 sets of faces.

Edge intersection testing:
    Number of edges             : 10208821
    Number of edges to retest   : 52797
    Number of intersected edges : 46400

Undo iteration 0
----------------
Checking faces in error :
    non-orthogonality >  65 degrees                        : 0
    faces with face pyramid volume < 1e-13                 : 0
    faces with face-decomposition tet quality < 1e-30      : 0
    faces with concavity >  80 degrees                     : 0
    faces with skewness >   4 (internal) or  20 (boundary) : 0
    faces with interpolation weights (0..1)  <  0.02       : 0
    faces with volume ratio of neighbour cells <  0.01     : 0
    faces with face twist <  0.02                          : 0
    faces on cells with determinant < 0.001                : 0

Merging all points on surface that
- are used by only two boundary faces and
- make an angle with a cosine of more than 0.866025.

Removing 12177 straight edge points ...

Edge intersection testing:
    Number of edges             : 10208821
    Number of edges to retest   : 51310
    Number of intersected edges : 46395

Undo iteration 0
----------------
Checking faces in error :
    non-orthogonality >  65 degrees                        : 0
    faces with face pyramid volume < 1e-13                 : 0
    faces with face-decomposition tet quality < 1e-30      : 0
    faces with concavity >  80 degrees                     : 0
    faces with skewness >   4 (internal) or  20 (boundary) : 0
    faces with interpolation weights (0..1)  <  0.02       : 0
    faces with volume ratio of neighbour cells <  0.01     : 0
    faces with face twist <  0.02                          : 0
    faces on cells with determinant < 0.001                : 0
Snapped mesh : cells:3374999  faces:10208821  points:3460236
Cells per refinement level:
    0	3374999
Writing mesh to time constant
Wrote mesh in = 119.45 s.
Mesh snapped in = 287.38 s.
Finished meshing in = 482.72 s.
End

