/*---------------------------------------------------------------------------*\
| =========                 |                                                 |
| \\      /  F ield         | OpenFOAM: The Open Source CFD Toolbox           |
|  \\    /   O peration     | Version:  2.1.0                                 |
|   \\  /    A nd           | Web:      www.OpenFOAM.org                      |
|    \\/     M anipulation  |                                                 |
\*---------------------------------------------------------------------------*/
Build  : 2.1.0-bd7367f93311
Exec   : blockMesh
Date   : Nov 14 2014
Time   : 10:07:50
Host   : "n0244.ten.osc.edu"
PID    : 13193
Case   : /nfs/05/ndem0010/crimson_files/ContainerFill/15
nProcs : 1
sigFpe : Enabling floating point exception trapping (FOAM_SIGFPE).
fileModificationChecking : Monitoring run-time modified files using timeStampMaster
allowSystemOperations : Disallowing user-supplied system call operations

// * * * * * * * * * * * * * * * * * * * * * * * * * * * * * * * * * * * * * //
Create time

Creating block mesh from
    "/nfs/05/ndem0010/crimson_files/ContainerFill/15/constant/polyMesh/blockMeshDict"
Creating curved edges
Creating topology blocks
Creating topology patches

Reading patches section

Creating block mesh topology

Reading physicalType from existing boundary file

Default patch type set to empty

Check topology

	Basic statistics
		Number of internal faces : 0
		Number of boundary faces : 6
		Number of defined boundary faces : 6
		Number of undefined boundary faces : 0
	Checking patch -> block consistency

Creating block offsets
Creating merge list .

Creating polyMesh from blockMesh
Creating patches
Creating cells
Creating points with scale 1

Writing polyMesh
----------------
Mesh Information
----------------
  boundingBox: (-0.999938 -1.02 -0.49) (0.999938 1.02 1.51)
  nPoints: 3442951
  nCells: 3375000
  nFaces: 10192500
  nInternalFaces: 10057500
----------------
Patches
----------------
  patch 0 (start: 10057500 size: 22500) name: maxY
  patch 1 (start: 10080000 size: 22500) name: minX
  patch 2 (start: 10102500 size: 22500) name: maxX
  patch 3 (start: 10125000 size: 22500) name: minY
  patch 4 (start: 10147500 size: 22500) name: minZ
  patch 5 (start: 10170000 size: 22500) name: maxZ

End

