/*---------------------------------------------------------------------------*\
| =========                 |                                                 |
| \\      /  F ield         | OpenFOAM: The Open Source CFD Toolbox           |
|  \\    /   O peration     | Version:  2.1.0                                 |
|   \\  /    A nd           | Web:      www.OpenFOAM.org                      |
|    \\/     M anipulation  |                                                 |
\*---------------------------------------------------------------------------*/
Build  : 2.1.0-bd7367f93311
Exec   : createPatch -overwrite
Date   : Nov 14 2014
Time   : 10:17:15
Host   : "n0244.ten.osc.edu"
PID    : 13314
Case   : /nfs/05/ndem0010/crimson_files/ContainerFill/15
nProcs : 1
sigFpe : Enabling floating point exception trapping (FOAM_SIGFPE).
fileModificationChecking : Monitoring run-time modified files using timeStampMaster
allowSystemOperations : Disallowing user-supplied system call operations

// * * * * * * * * * * * * * * * * * * * * * * * * * * * * * * * * * * * * * //
Create time

Reading createPatchDict.

Create polyMesh for time = 0


Doing topology modification to order faces.

Synchronising points.

Synchronising points.
Points changed by average:0 max:0

Removing patches with no faces in them.

No patches removed.
Writing repatched mesh to 0

End

