/*---------------------------------------------------------------------------*\
| =========                 |                                                 |
| \\      /  F ield         | OpenFOAM: The Open Source CFD Toolbox           |
|  \\    /   O peration     | Version:  2.1.0                                 |
|   \\  /    A nd           | Web:      www.OpenFOAM.org                      |
|    \\/     M anipulation  |                                                 |
\*---------------------------------------------------------------------------*/
Build  : 2.1.0-bd7367f93311
Exec   : changeDictionary
Date   : Nov 14 2014
Time   : 10:18:43
Host   : "n0244.ten.osc.edu"
PID    : 13334
Case   : /nfs/05/ndem0010/crimson_files/ContainerFill/15
nProcs : 1
sigFpe : Enabling floating point exception trapping (FOAM_SIGFPE).
fileModificationChecking : Monitoring run-time modified files using timeStampMaster
allowSystemOperations : Disallowing user-supplied system call operations

// * * * * * * * * * * * * * * * * * * * * * * * * * * * * * * * * * * * * * //
Create time

Create mesh for time = 0

// using new solver syntax:
U
{
    solver          PBiCG;
    preconditioner  DILU;
    tolerance       0.001;
    relTol          0.01;
}

// using new solver syntax:
k
{
    solver          PBiCG;
    preconditioner  DILU;
    tolerance       0.001;
    relTol          0.01;
}

// using new solver syntax:
epsilon
{
    solver          PBiCG;
    preconditioner  DILU;
    tolerance       0.001;
    relTol          0.01;
}

// using new solver syntax:
omega
{
    solver          PBiCG;
    preconditioner  DILU;
    tolerance       1;
    relTol          1;
}

// using new solver syntax:
nuTilda
{
    solver          PBiCG;
    preconditioner  DILU;
    tolerance       1;
    relTol          1;
}

// using new solver syntax:
UFinal
{
    solver          PBiCG;
    preconditioner  DILU;
    tolerance       0.001;
    relTol          0.01;
}

// using new solver syntax:
kFinal
{
    solver          PBiCG;
    preconditioner  DILU;
    tolerance       0.001;
    relTol          0.01;
}

// using new solver syntax:
epsilonFinal
{
    solver          PBiCG;
    preconditioner  DILU;
    tolerance       0.001;
    relTol          0.01;
}

// using new solver syntax:
omegaFinal
{
    solver          PBiCG;
    preconditioner  DILU;
    tolerance       1;
    relTol          1;
}

// using new solver syntax:
nuTildaFinal
{
    solver          PBiCG;
    preconditioner  DILU;
    tolerance       1;
    relTol          1;
}

Read dictionary changeDictionaryDict with replacements for dictionaries 
1
(
boundary
)

Replacing entries in dictionary boundary
Special handling of boundary as polyMesh/boundary file.
Loaded dictionary boundary with entries 
9
(
maxY
minX
maxX
minY
minZ
maxZ
inlet1_inlet1
outlet1_inlet2
walls_wall
)

Merging entries from 
3
(
walls_.*
outlet1_.*
inlet1_.*
)

fieldDict:
{
    maxY
    {
        type            patch;
        nFaces          22500;
        startFace       10027050;
    }
    minX
    {
        type            patch;
        nFaces          22500;
        startFace       10049550;
    }
    maxX
    {
        type            patch;
        nFaces          22500;
        startFace       10072050;
    }
    minY
    {
        type            patch;
        nFaces          22500;
        startFace       10094550;
    }
    minZ
    {
        type            patch;
        nFaces          22500;
        startFace       10117050;
    }
    maxZ
    {
        type            patch;
        nFaces          22500;
        startFace       10139550;
    }
    inlet1_inlet1
    {
        type            patch;
        nFaces          169;
        startFace       10162050;
    }
    outlet1_inlet2
    {
        type            patch;
        nFaces          102;
        startFace       10162219;
    }
    walls_wall
    {
        type            wall;
        nFaces          46500;
        startFace       10162321;
    }
}

Writing modified fieldDict boundary

End

