/*---------------------------------------------------------------------------*\
| =========                 |                                                 |
| \\      /  F ield         | OpenFOAM: The Open Source CFD Toolbox           |
|  \\    /   O peration     | Version:  2.1.0                                 |
|   \\  /    A nd           | Web:      www.OpenFOAM.org                      |
|    \\/     M anipulation  |                                                 |
\*---------------------------------------------------------------------------*/
Build  : 2.1.0-bd7367f93311
Exec   : decomposePar
Date   : Nov 14 2014
Time   : 10:19:21
Host   : "n0244.ten.osc.edu"
PID    : 13344
Case   : /nfs/05/ndem0010/crimson_files/ContainerFill/15
nProcs : 1
sigFpe : Enabling floating point exception trapping (FOAM_SIGFPE).
fileModificationChecking : Monitoring run-time modified files using timeStampMaster
allowSystemOperations : Disallowing user-supplied system call operations

// * * * * * * * * * * * * * * * * * * * * * * * * * * * * * * * * * * * * * //
Create time

Time = 0
Create mesh

Calculating distribution of cells
Selecting decompositionMethod simple

Finished decomposition in 3.32 s

Calculating original mesh data

Distributing cells to processors

Distributing faces to processors

Distributing points to processors

Constructing processor meshes

Processor 0
    Number of cells = 35675
    Number of faces shared with processor 1 = 999
    Number of faces shared with processor 4 = 1439
    Number of faces shared with processor 24 = 925
    Number of processor patches = 3
    Number of processor faces = 3363
    Number of boundary faces = 3315

Processor 1
    Number of cells = 35575
    Number of faces shared with processor 0 = 999
    Number of faces shared with processor 2 = 950
    Number of faces shared with processor 4 = 1
    Number of faces shared with processor 5 = 1410
    Number of faces shared with processor 25 = 950
    Number of processor patches = 5
    Number of processor faces = 4310
    Number of boundary faces = 2360

Processor 2
    Number of cells = 35242
    Number of faces shared with processor 1 = 950
    Number of faces shared with processor 3 = 977
    Number of faces shared with processor 6 = 1420
    Number of faces shared with processor 26 = 925
    Number of processor patches = 4
    Number of processor faces = 4272
    Number of boundary faces = 2344

Processor 3
    Number of cells = 35910
    Number of faces shared with processor 2 = 977
    Number of faces shared with processor 6 = 1
    Number of faces shared with processor 7 = 1414
    Number of faces shared with processor 27 = 977
    Number of faces shared with processor 31 = 1
    Number of processor patches = 5
    Number of processor faces = 3370
    Number of boundary faces = 3318

Processor 4
    Number of cells = 36090
    Number of faces shared with processor 0 = 1439
    Number of faces shared with processor 1 = 1
    Number of faces shared with processor 5 = 958
    Number of faces shared with processor 8 = 1444
    Number of faces shared with processor 28 = 945
    Number of faces shared with processor 29 = 1
    Number of processor patches = 6
    Number of processor faces = 4788
    Number of boundary faces = 1900

Processor 5
    Number of cells = 34955
    Number of faces shared with processor 1 = 1410
    Number of faces shared with processor 4 = 958
    Number of faces shared with processor 6 = 938
    Number of faces shared with processor 9 = 1391
    Number of faces shared with processor 29 = 942
    Number of processor patches = 5
    Number of processor faces = 5639
    Number of boundary faces = 958

Processor 6
    Number of cells = 35580
    Number of faces shared with processor 2 = 1420
    Number of faces shared with processor 3 = 1
    Number of faces shared with processor 5 = 938
    Number of faces shared with processor 7 = 993
    Number of faces shared with processor 10 = 1423
    Number of faces shared with processor 30 = 947
    Number of faces shared with processor 34 = 1
    Number of processor patches = 7
    Number of processor faces = 5723
    Number of boundary faces = 982

Processor 7
    Number of cells = 34754
    Number of faces shared with processor 3 = 1414
    Number of faces shared with processor 6 = 993
    Number of faces shared with processor 11 = 1369
    Number of faces shared with processor 30 = 1
    Number of faces shared with processor 31 = 993
    Number of processor patches = 5
    Number of processor faces = 4770
    Number of boundary faces = 1850

Processor 8
    Number of cells = 36100
    Number of faces shared with processor 4 = 1444
    Number of faces shared with processor 9 = 950
    Number of faces shared with processor 12 = 1444
    Number of faces shared with processor 32 = 950
    Number of processor patches = 4
    Number of processor faces = 4788
    Number of boundary faces = 1900

Processor 9
    Number of cells = 34759
    Number of faces shared with processor 5 = 1391
    Number of faces shared with processor 8 = 950
    Number of faces shared with processor 10 = 925
    Number of faces shared with processor 13 = 1390
    Number of faces shared with processor 33 = 851
    Number of processor patches = 5
    Number of processor faces = 5507
    Number of boundary faces = 1050

Processor 10
    Number of cells = 35338
    Number of faces shared with processor 6 = 1423
    Number of faces shared with processor 9 = 925
    Number of faces shared with processor 11 = 925
    Number of faces shared with processor 14 = 1411
    Number of faces shared with processor 34 = 878
    Number of processor patches = 5
    Number of processor faces = 5562
    Number of boundary faces = 1075

Processor 11
    Number of cells = 34225
    Number of faces shared with processor 7 = 1369
    Number of faces shared with processor 10 = 925
    Number of faces shared with processor 15 = 1369
    Number of faces shared with processor 35 = 925
    Number of processor patches = 4
    Number of processor faces = 4588
    Number of boundary faces = 1850

Processor 12
    Number of cells = 36100
    Number of faces shared with processor 8 = 1444
    Number of faces shared with processor 13 = 950
    Number of faces shared with processor 16 = 1444
    Number of faces shared with processor 36 = 950
    Number of processor patches = 4
    Number of processor faces = 4788
    Number of boundary faces = 1900

Processor 13
    Number of cells = 34713
    Number of faces shared with processor 9 = 1390
    Number of faces shared with processor 12 = 950
    Number of faces shared with processor 14 = 925
    Number of faces shared with processor 17 = 1386
    Number of faces shared with processor 37 = 861
    Number of faces shared with processor 41 = 1
    Number of processor patches = 6
    Number of processor faces = 5513
    Number of boundary faces = 1042

Processor 14
    Number of cells = 35258
    Number of faces shared with processor 10 = 1411
    Number of faces shared with processor 13 = 925
    Number of faces shared with processor 15 = 925
    Number of faces shared with processor 18 = 1410
    Number of faces shared with processor 38 = 868
    Number of processor patches = 5
    Number of processor faces = 5539
    Number of boundary faces = 1058

Processor 15
    Number of cells = 34225
    Number of faces shared with processor 11 = 1369
    Number of faces shared with processor 14 = 925
    Number of faces shared with processor 19 = 1369
    Number of faces shared with processor 39 = 925
    Number of processor patches = 4
    Number of processor faces = 4588
    Number of boundary faces = 1850

Processor 16
    Number of cells = 36094
    Number of faces shared with processor 12 = 1444
    Number of faces shared with processor 17 = 946
    Number of faces shared with processor 20 = 1440
    Number of faces shared with processor 40 = 956
    Number of faces shared with processor 41 = 1
    Number of faces shared with processor 44 = 1
    Number of processor patches = 6
    Number of processor faces = 4788
    Number of boundary faces = 1900

Processor 17
    Number of cells = 34459
    Number of faces shared with processor 13 = 1386
    Number of faces shared with processor 16 = 946
    Number of faces shared with processor 18 = 925
    Number of faces shared with processor 21 = 1369
    Number of faces shared with processor 41 = 933
    Number of processor patches = 5
    Number of processor faces = 5559
    Number of boundary faces = 969

Processor 18
    Number of cells = 35194
    Number of faces shared with processor 14 = 1410
    Number of faces shared with processor 17 = 925
    Number of faces shared with processor 19 = 925
    Number of faces shared with processor 22 = 1406
    Number of faces shared with processor 42 = 924
    Number of processor patches = 5
    Number of processor faces = 5590
    Number of boundary faces = 994

Processor 19
    Number of cells = 34225
    Number of faces shared with processor 15 = 1369
    Number of faces shared with processor 18 = 925
    Number of faces shared with processor 23 = 1369
    Number of faces shared with processor 43 = 925
    Number of processor patches = 4
    Number of processor faces = 4588
    Number of boundary faces = 1850

Processor 20
    Number of cells = 35679
    Number of faces shared with processor 16 = 1440
    Number of faces shared with processor 21 = 925
    Number of faces shared with processor 44 = 1000
    Number of processor patches = 3
    Number of processor faces = 3365
    Number of boundary faces = 3315

Processor 21
    Number of cells = 34226
    Number of faces shared with processor 17 = 1369
    Number of faces shared with processor 20 = 925
    Number of faces shared with processor 22 = 927
    Number of faces shared with processor 45 = 925
    Number of processor patches = 4
    Number of processor faces = 4146
    Number of boundary faces = 2296

Processor 22
    Number of cells = 35149
    Number of faces shared with processor 18 = 1406
    Number of faces shared with processor 21 = 927
    Number of faces shared with processor 23 = 925
    Number of faces shared with processor 46 = 950
    Number of processor patches = 4
    Number of processor faces = 4208
    Number of boundary faces = 2354

Processor 23
    Number of cells = 34225
    Number of faces shared with processor 19 = 1369
    Number of faces shared with processor 22 = 925
    Number of faces shared with processor 47 = 925
    Number of processor patches = 3
    Number of processor faces = 3219
    Number of boundary faces = 3219

Processor 24
    Number of cells = 34225
    Number of faces shared with processor 0 = 925
    Number of faces shared with processor 25 = 925
    Number of faces shared with processor 28 = 1369
    Number of faces shared with processor 48 = 925
    Number of processor patches = 4
    Number of processor faces = 4144
    Number of boundary faces = 2294

Processor 25
    Number of cells = 35150
    Number of faces shared with processor 1 = 950
    Number of faces shared with processor 24 = 925
    Number of faces shared with processor 26 = 925
    Number of faces shared with processor 29 = 1406
    Number of faces shared with processor 49 = 950
    Number of processor patches = 5
    Number of processor faces = 5156
    Number of boundary faces = 1406

Processor 26
    Number of cells = 34225
    Number of faces shared with processor 2 = 925
    Number of faces shared with processor 25 = 925
    Number of faces shared with processor 27 = 925
    Number of faces shared with processor 30 = 1369
    Number of faces shared with processor 50 = 925
    Number of processor patches = 5
    Number of processor faces = 5069
    Number of boundary faces = 1369

Processor 27
    Number of cells = 35248
    Number of faces shared with processor 3 = 977
    Number of faces shared with processor 26 = 925
    Number of faces shared with processor 31 = 1420
    Number of faces shared with processor 51 = 950
    Number of processor patches = 4
    Number of processor faces = 4272
    Number of boundary faces = 2344

Processor 28
    Number of cells = 34436
    Number of faces shared with processor 4 = 945
    Number of faces shared with processor 24 = 1369
    Number of faces shared with processor 29 = 943
    Number of faces shared with processor 32 = 1386
    Number of faces shared with processor 52 = 927
    Number of processor patches = 5
    Number of processor faces = 5570
    Number of boundary faces = 951

Processor 29
    Number of cells = 35144
    Number of faces shared with processor 4 = 1
    Number of faces shared with processor 5 = 942
    Number of faces shared with processor 25 = 1406
    Number of faces shared with processor 28 = 943
    Number of faces shared with processor 30 = 932
    Number of faces shared with processor 32 = 1
    Number of faces shared with processor 33 = 1403
    Number of faces shared with processor 53 = 943
    Number of processor patches = 8
    Number of processor faces = 6571
    Number of boundary faces = 2977

Processor 30
    Number of cells = 34711
    Number of faces shared with processor 6 = 947
    Number of faces shared with processor 7 = 1
    Number of faces shared with processor 26 = 1369
    Number of faces shared with processor 29 = 932
    Number of faces shared with processor 31 = 946
    Number of faces shared with processor 34 = 1408
    Number of faces shared with processor 54 = 932
    Number of processor patches = 7
    Number of processor faces = 6535
    Number of boundary faces = 2971

Processor 31
    Number of cells = 35580
    Number of faces shared with processor 3 = 1
    Number of faces shared with processor 7 = 993
    Number of faces shared with processor 27 = 1420
    Number of faces shared with processor 30 = 946
    Number of faces shared with processor 34 = 1
    Number of faces shared with processor 35 = 1423
    Number of faces shared with processor 55 = 938
    Number of processor patches = 7
    Number of processor faces = 5722
    Number of boundary faces = 983

Processor 32
    Number of cells = 34714
    Number of faces shared with processor 8 = 950
    Number of faces shared with processor 28 = 1386
    Number of faces shared with processor 29 = 1
    Number of faces shared with processor 33 = 860
    Number of faces shared with processor 36 = 1390
    Number of faces shared with processor 56 = 925
    Number of processor patches = 6
    Number of processor faces = 5512
    Number of boundary faces = 1043

Processor 33
    Number of cells = 35052
    Number of faces shared with processor 9 = 851
    Number of faces shared with processor 29 = 1403
    Number of faces shared with processor 32 = 860
    Number of faces shared with processor 34 = 925
    Number of faces shared with processor 37 = 1401
    Number of faces shared with processor 57 = 925
    Number of processor patches = 6
    Number of processor faces = 6365
    Number of boundary faces = 2432

Processor 34
    Number of cells = 35724
    Number of faces shared with processor 6 = 1
    Number of faces shared with processor 10 = 878
    Number of faces shared with processor 30 = 1408
    Number of faces shared with processor 31 = 1
    Number of faces shared with processor 33 = 925
    Number of faces shared with processor 35 = 878
    Number of faces shared with processor 38 = 1434
    Number of faces shared with processor 58 = 925
    Number of processor patches = 8
    Number of processor faces = 6450
    Number of boundary faces = 2425

Processor 35
    Number of cells = 35338
    Number of faces shared with processor 11 = 925
    Number of faces shared with processor 31 = 1423
    Number of faces shared with processor 34 = 878
    Number of faces shared with processor 39 = 1411
    Number of faces shared with processor 59 = 925
    Number of processor patches = 5
    Number of processor faces = 5562
    Number of boundary faces = 1075

Processor 36
    Number of cells = 34759
    Number of faces shared with processor 12 = 950
    Number of faces shared with processor 32 = 1390
    Number of faces shared with processor 37 = 851
    Number of faces shared with processor 40 = 1391
    Number of faces shared with processor 60 = 925
    Number of processor patches = 5
    Number of processor faces = 5507
    Number of boundary faces = 1050

Processor 37
    Number of cells = 35053
    Number of faces shared with processor 13 = 861
    Number of faces shared with processor 33 = 1401
    Number of faces shared with processor 36 = 851
    Number of faces shared with processor 38 = 925
    Number of faces shared with processor 41 = 1403
    Number of faces shared with processor 61 = 925
    Number of processor patches = 6
    Number of processor faces = 6366
    Number of boundary faces = 2433

Processor 38
    Number of cells = 35883
    Number of faces shared with processor 14 = 868
    Number of faces shared with processor 34 = 1434
    Number of faces shared with processor 37 = 925
    Number of faces shared with processor 39 = 867
    Number of faces shared with processor 42 = 1436
    Number of faces shared with processor 62 = 925
    Number of processor patches = 6
    Number of processor faces = 6455
    Number of boundary faces = 2458

Processor 39
    Number of cells = 35259
    Number of faces shared with processor 15 = 925
    Number of faces shared with processor 35 = 1411
    Number of faces shared with processor 38 = 867
    Number of faces shared with processor 43 = 1410
    Number of faces shared with processor 63 = 925
    Number of processor patches = 5
    Number of processor faces = 5538
    Number of boundary faces = 1059

Processor 40
    Number of cells = 34977
    Number of faces shared with processor 16 = 956
    Number of faces shared with processor 36 = 1391
    Number of faces shared with processor 41 = 916
    Number of faces shared with processor 44 = 1409
    Number of faces shared with processor 64 = 938
    Number of processor patches = 5
    Number of processor faces = 5610
    Number of boundary faces = 981

Processor 41
    Number of cells = 35095
    Number of faces shared with processor 13 = 1
    Number of faces shared with processor 16 = 1
    Number of faces shared with processor 17 = 933
    Number of faces shared with processor 37 = 1403
    Number of faces shared with processor 40 = 916
    Number of faces shared with processor 42 = 939
    Number of faces shared with processor 45 = 1406
    Number of faces shared with processor 65 = 925
    Number of processor patches = 8
    Number of processor faces = 6524
    Number of boundary faces = 3197

Processor 42
    Number of cells = 36012
    Number of faces shared with processor 18 = 924
    Number of faces shared with processor 38 = 1436
    Number of faces shared with processor 41 = 939
    Number of faces shared with processor 43 = 924
    Number of faces shared with processor 46 = 1444
    Number of faces shared with processor 66 = 939
    Number of processor patches = 6
    Number of processor faces = 6606
    Number of boundary faces = 3358

Processor 43
    Number of cells = 35194
    Number of faces shared with processor 19 = 925
    Number of faces shared with processor 39 = 1410
    Number of faces shared with processor 42 = 924
    Number of faces shared with processor 47 = 1406
    Number of faces shared with processor 67 = 925
    Number of processor patches = 5
    Number of processor faces = 5590
    Number of boundary faces = 994

Processor 44
    Number of cells = 35571
    Number of faces shared with processor 16 = 1
    Number of faces shared with processor 20 = 1000
    Number of faces shared with processor 40 = 1409
    Number of faces shared with processor 45 = 950
    Number of faces shared with processor 68 = 950
    Number of processor patches = 5
    Number of processor faces = 4310
    Number of boundary faces = 2360

Processor 45
    Number of cells = 35150
    Number of faces shared with processor 21 = 925
    Number of faces shared with processor 41 = 1406
    Number of faces shared with processor 44 = 950
    Number of faces shared with processor 46 = 950
    Number of faces shared with processor 69 = 925
    Number of processor patches = 5
    Number of processor faces = 5156
    Number of boundary faces = 1406

Processor 46
    Number of cells = 36100
    Number of faces shared with processor 22 = 950
    Number of faces shared with processor 42 = 1444
    Number of faces shared with processor 45 = 950
    Number of faces shared with processor 47 = 950
    Number of faces shared with processor 70 = 950
    Number of processor patches = 5
    Number of processor faces = 5244
    Number of boundary faces = 1444

Processor 47
    Number of cells = 35150
    Number of faces shared with processor 23 = 925
    Number of faces shared with processor 43 = 1406
    Number of faces shared with processor 46 = 950
    Number of faces shared with processor 71 = 925
    Number of processor patches = 4
    Number of processor faces = 4206
    Number of boundary faces = 2356

Processor 48
    Number of cells = 35150
    Number of faces shared with processor 24 = 925
    Number of faces shared with processor 49 = 950
    Number of faces shared with processor 52 = 1406
    Number of faces shared with processor 72 = 925
    Number of processor patches = 4
    Number of processor faces = 4206
    Number of boundary faces = 2356

Processor 49
    Number of cells = 36100
    Number of faces shared with processor 25 = 950
    Number of faces shared with processor 48 = 950
    Number of faces shared with processor 50 = 950
    Number of faces shared with processor 53 = 1444
    Number of faces shared with processor 73 = 950
    Number of processor patches = 5
    Number of processor faces = 5244
    Number of boundary faces = 1444

Processor 50
    Number of cells = 35150
    Number of faces shared with processor 26 = 925
    Number of faces shared with processor 49 = 950
    Number of faces shared with processor 51 = 950
    Number of faces shared with processor 54 = 1406
    Number of faces shared with processor 74 = 925
    Number of processor patches = 5
    Number of processor faces = 5156
    Number of boundary faces = 1406

Processor 51
    Number of cells = 35575
    Number of faces shared with processor 27 = 950
    Number of faces shared with processor 50 = 950
    Number of faces shared with processor 55 = 1410
    Number of faces shared with processor 75 = 999
    Number of faces shared with processor 79 = 1
    Number of processor patches = 5
    Number of processor faces = 4310
    Number of boundary faces = 2360

Processor 52
    Number of cells = 35176
    Number of faces shared with processor 28 = 927
    Number of faces shared with processor 48 = 1406
    Number of faces shared with processor 53 = 935
    Number of faces shared with processor 56 = 1410
    Number of faces shared with processor 76 = 925
    Number of processor patches = 5
    Number of processor faces = 5603
    Number of boundary faces = 976

Processor 53
    Number of cells = 36048
    Number of faces shared with processor 29 = 943
    Number of faces shared with processor 49 = 1444
    Number of faces shared with processor 52 = 935
    Number of faces shared with processor 54 = 943
    Number of faces shared with processor 57 = 1436
    Number of faces shared with processor 77 = 935
    Number of processor patches = 6
    Number of processor faces = 6636
    Number of boundary faces = 2986

Processor 54
    Number of cells = 35144
    Number of faces shared with processor 30 = 932
    Number of faces shared with processor 50 = 1406
    Number of faces shared with processor 53 = 943
    Number of faces shared with processor 55 = 942
    Number of faces shared with processor 58 = 1403
    Number of faces shared with processor 78 = 943
    Number of faces shared with processor 79 = 1
    Number of faces shared with processor 82 = 1
    Number of processor patches = 8
    Number of processor faces = 6571
    Number of boundary faces = 2979

Processor 55
    Number of cells = 34952
    Number of faces shared with processor 31 = 938
    Number of faces shared with processor 51 = 1410
    Number of faces shared with processor 54 = 942
    Number of faces shared with processor 59 = 1391
    Number of faces shared with processor 79 = 958
    Number of processor patches = 5
    Number of processor faces = 5639
    Number of boundary faces = 958

Processor 56
    Number of cells = 35259
    Number of faces shared with processor 32 = 925
    Number of faces shared with processor 52 = 1410
    Number of faces shared with processor 57 = 867
    Number of faces shared with processor 60 = 1411
    Number of faces shared with processor 80 = 925
    Number of processor patches = 5
    Number of processor faces = 5538
    Number of boundary faces = 1059

Processor 57
    Number of cells = 35883
    Number of faces shared with processor 33 = 925
    Number of faces shared with processor 53 = 1436
    Number of faces shared with processor 56 = 867
    Number of faces shared with processor 58 = 925
    Number of faces shared with processor 61 = 1434
    Number of faces shared with processor 81 = 868
    Number of processor patches = 6
    Number of processor faces = 6455
    Number of boundary faces = 2458

Processor 58
    Number of cells = 35053
    Number of faces shared with processor 34 = 925
    Number of faces shared with processor 54 = 1403
    Number of faces shared with processor 57 = 925
    Number of faces shared with processor 59 = 851
    Number of faces shared with processor 62 = 1401
    Number of faces shared with processor 82 = 861
    Number of processor patches = 6
    Number of processor faces = 6366
    Number of boundary faces = 2433

Processor 59
    Number of cells = 34759
    Number of faces shared with processor 35 = 925
    Number of faces shared with processor 55 = 1391
    Number of faces shared with processor 58 = 851
    Number of faces shared with processor 63 = 1390
    Number of faces shared with processor 83 = 950
    Number of processor patches = 5
    Number of processor faces = 5507
    Number of boundary faces = 1050

Processor 60
    Number of cells = 35337
    Number of faces shared with processor 36 = 925
    Number of faces shared with processor 56 = 1411
    Number of faces shared with processor 61 = 878
    Number of faces shared with processor 64 = 1423
    Number of faces shared with processor 84 = 925
    Number of processor patches = 5
    Number of processor faces = 5562
    Number of boundary faces = 1075

Processor 61
    Number of cells = 35726
    Number of faces shared with processor 37 = 925
    Number of faces shared with processor 57 = 1434
    Number of faces shared with processor 60 = 878
    Number of faces shared with processor 62 = 925
    Number of faces shared with processor 64 = 1
    Number of faces shared with processor 65 = 1408
    Number of faces shared with processor 85 = 878
    Number of faces shared with processor 89 = 1
    Number of processor patches = 8
    Number of processor faces = 6450
    Number of boundary faces = 2425

Processor 62
    Number of cells = 35052
    Number of faces shared with processor 38 = 925
    Number of faces shared with processor 58 = 1401
    Number of faces shared with processor 61 = 925
    Number of faces shared with processor 63 = 860
    Number of faces shared with processor 66 = 1403
    Number of faces shared with processor 86 = 851
    Number of processor patches = 6
    Number of processor faces = 6365
    Number of boundary faces = 2432

Processor 63
    Number of cells = 34714
    Number of faces shared with processor 39 = 925
    Number of faces shared with processor 59 = 1390
    Number of faces shared with processor 62 = 860
    Number of faces shared with processor 66 = 1
    Number of faces shared with processor 67 = 1386
    Number of faces shared with processor 87 = 950
    Number of processor patches = 6
    Number of processor faces = 5512
    Number of boundary faces = 1043

Processor 64
    Number of cells = 35604
    Number of faces shared with processor 40 = 938
    Number of faces shared with processor 60 = 1423
    Number of faces shared with processor 61 = 1
    Number of faces shared with processor 65 = 924
    Number of faces shared with processor 68 = 1420
    Number of faces shared with processor 88 = 993
    Number of faces shared with processor 92 = 1
    Number of processor patches = 7
    Number of processor faces = 5700
    Number of boundary faces = 1005

Processor 65
    Number of cells = 34660
    Number of faces shared with processor 41 = 925
    Number of faces shared with processor 61 = 1408
    Number of faces shared with processor 64 = 924
    Number of faces shared with processor 66 = 925
    Number of faces shared with processor 69 = 1369
    Number of faces shared with processor 88 = 1
    Number of faces shared with processor 89 = 921
    Number of processor patches = 7
    Number of processor faces = 6473
    Number of boundary faces = 2911

Processor 66
    Number of cells = 35096
    Number of faces shared with processor 42 = 939
    Number of faces shared with processor 62 = 1403
    Number of faces shared with processor 63 = 1
    Number of faces shared with processor 65 = 925
    Number of faces shared with processor 67 = 933
    Number of faces shared with processor 70 = 1406
    Number of faces shared with processor 90 = 913
    Number of faces shared with processor 91 = 1
    Number of processor patches = 8
    Number of processor faces = 6521
    Number of boundary faces = 3359

Processor 67
    Number of cells = 34457
    Number of faces shared with processor 43 = 925
    Number of faces shared with processor 63 = 1386
    Number of faces shared with processor 66 = 933
    Number of faces shared with processor 71 = 1369
    Number of faces shared with processor 91 = 946
    Number of processor patches = 5
    Number of processor faces = 5559
    Number of boundary faces = 969

Processor 68
    Number of cells = 35255
    Number of faces shared with processor 44 = 950
    Number of faces shared with processor 64 = 1420
    Number of faces shared with processor 69 = 925
    Number of faces shared with processor 92 = 978
    Number of processor patches = 4
    Number of processor faces = 4273
    Number of boundary faces = 2345

Processor 69
    Number of cells = 34225
    Number of faces shared with processor 45 = 925
    Number of faces shared with processor 65 = 1369
    Number of faces shared with processor 68 = 925
    Number of faces shared with processor 70 = 925
    Number of faces shared with processor 93 = 925
    Number of processor patches = 5
    Number of processor faces = 5069
    Number of boundary faces = 1369

Processor 70
    Number of cells = 35150
    Number of faces shared with processor 46 = 950
    Number of faces shared with processor 66 = 1406
    Number of faces shared with processor 69 = 925
    Number of faces shared with processor 71 = 925
    Number of faces shared with processor 94 = 950
    Number of processor patches = 5
    Number of processor faces = 5156
    Number of boundary faces = 1406

Processor 71
    Number of cells = 34225
    Number of faces shared with processor 47 = 925
    Number of faces shared with processor 67 = 1369
    Number of faces shared with processor 70 = 925
    Number of faces shared with processor 95 = 925
    Number of processor patches = 4
    Number of processor faces = 4144
    Number of boundary faces = 2294

Processor 72
    Number of cells = 34225
    Number of faces shared with processor 48 = 925
    Number of faces shared with processor 73 = 925
    Number of faces shared with processor 76 = 1369
    Number of processor patches = 3
    Number of processor faces = 3219
    Number of boundary faces = 3219

Processor 73
    Number of cells = 35150
    Number of faces shared with processor 49 = 950
    Number of faces shared with processor 72 = 925
    Number of faces shared with processor 74 = 925
    Number of faces shared with processor 77 = 1406
    Number of processor patches = 4
    Number of processor faces = 4206
    Number of boundary faces = 2356

Processor 74
    Number of cells = 34225
    Number of faces shared with processor 50 = 925
    Number of faces shared with processor 73 = 925
    Number of faces shared with processor 75 = 925
    Number of faces shared with processor 78 = 1369
    Number of processor patches = 4
    Number of processor faces = 4144
    Number of boundary faces = 2294

Processor 75
    Number of cells = 35675
    Number of faces shared with processor 51 = 999
    Number of faces shared with processor 74 = 925
    Number of faces shared with processor 79 = 1439
    Number of processor patches = 3
    Number of processor faces = 3363
    Number of boundary faces = 3315

Processor 76
    Number of cells = 34225
    Number of faces shared with processor 52 = 925
    Number of faces shared with processor 72 = 1369
    Number of faces shared with processor 77 = 925
    Number of faces shared with processor 80 = 1369
    Number of processor patches = 4
    Number of processor faces = 4588
    Number of boundary faces = 1850

Processor 77
    Number of cells = 35176
    Number of faces shared with processor 53 = 935
    Number of faces shared with processor 73 = 1406
    Number of faces shared with processor 76 = 925
    Number of faces shared with processor 78 = 932
    Number of faces shared with processor 81 = 1410
    Number of processor patches = 5
    Number of processor faces = 5608
    Number of boundary faces = 976

Processor 78
    Number of cells = 34439
    Number of faces shared with processor 54 = 943
    Number of faces shared with processor 74 = 1369
    Number of faces shared with processor 77 = 932
    Number of faces shared with processor 79 = 945
    Number of faces shared with processor 82 = 1386
    Number of processor patches = 5
    Number of processor faces = 5575
    Number of boundary faces = 951

Processor 79
    Number of cells = 36090
    Number of faces shared with processor 51 = 1
    Number of faces shared with processor 54 = 1
    Number of faces shared with processor 55 = 958
    Number of faces shared with processor 75 = 1439
    Number of faces shared with processor 78 = 945
    Number of faces shared with processor 83 = 1444
    Number of processor patches = 6
    Number of processor faces = 4788
    Number of boundary faces = 1900

Processor 80
    Number of cells = 34225
    Number of faces shared with processor 56 = 925
    Number of faces shared with processor 76 = 1369
    Number of faces shared with processor 81 = 925
    Number of faces shared with processor 84 = 1369
    Number of processor patches = 4
    Number of processor faces = 4588
    Number of boundary faces = 1850

Processor 81
    Number of cells = 35258
    Number of faces shared with processor 57 = 868
    Number of faces shared with processor 77 = 1410
    Number of faces shared with processor 80 = 925
    Number of faces shared with processor 82 = 950
    Number of faces shared with processor 85 = 1411
    Number of processor patches = 5
    Number of processor faces = 5564
    Number of boundary faces = 1058

Processor 82
    Number of cells = 34713
    Number of faces shared with processor 54 = 1
    Number of faces shared with processor 58 = 861
    Number of faces shared with processor 78 = 1386
    Number of faces shared with processor 81 = 950
    Number of faces shared with processor 83 = 950
    Number of faces shared with processor 86 = 1390
    Number of processor patches = 6
    Number of processor faces = 5538
    Number of boundary faces = 1042

Processor 83
    Number of cells = 36100
    Number of faces shared with processor 59 = 950
    Number of faces shared with processor 79 = 1444
    Number of faces shared with processor 82 = 950
    Number of faces shared with processor 87 = 1444
    Number of processor patches = 4
    Number of processor faces = 4788
    Number of boundary faces = 1900

Processor 84
    Number of cells = 34225
    Number of faces shared with processor 60 = 925
    Number of faces shared with processor 80 = 1369
    Number of faces shared with processor 85 = 925
    Number of faces shared with processor 88 = 1369
    Number of processor patches = 4
    Number of processor faces = 4588
    Number of boundary faces = 1850

Processor 85
    Number of cells = 35337
    Number of faces shared with processor 61 = 878
    Number of faces shared with processor 81 = 1411
    Number of faces shared with processor 84 = 925
    Number of faces shared with processor 86 = 950
    Number of faces shared with processor 89 = 1423
    Number of processor patches = 5
    Number of processor faces = 5587
    Number of boundary faces = 1075

Processor 86
    Number of cells = 34759
    Number of faces shared with processor 62 = 851
    Number of faces shared with processor 82 = 1390
    Number of faces shared with processor 85 = 950
    Number of faces shared with processor 87 = 950
    Number of faces shared with processor 90 = 1391
    Number of processor patches = 5
    Number of processor faces = 5532
    Number of boundary faces = 1050

Processor 87
    Number of cells = 36100
    Number of faces shared with processor 63 = 950
    Number of faces shared with processor 83 = 1444
    Number of faces shared with processor 86 = 950
    Number of faces shared with processor 91 = 1444
    Number of processor patches = 4
    Number of processor faces = 4788
    Number of boundary faces = 1900

Processor 88
    Number of cells = 34755
    Number of faces shared with processor 64 = 993
    Number of faces shared with processor 65 = 1
    Number of faces shared with processor 84 = 1369
    Number of faces shared with processor 89 = 993
    Number of faces shared with processor 92 = 1416
    Number of processor patches = 5
    Number of processor faces = 4772
    Number of boundary faces = 1852

Processor 89
    Number of cells = 35606
    Number of faces shared with processor 61 = 1
    Number of faces shared with processor 65 = 921
    Number of faces shared with processor 85 = 1423
    Number of faces shared with processor 88 = 993
    Number of faces shared with processor 90 = 950
    Number of faces shared with processor 92 = 1
    Number of faces shared with processor 93 = 1420
    Number of processor patches = 7
    Number of processor faces = 5709
    Number of boundary faces = 1005

Processor 90
    Number of cells = 34978
    Number of faces shared with processor 66 = 913
    Number of faces shared with processor 86 = 1391
    Number of faces shared with processor 89 = 950
    Number of faces shared with processor 91 = 956
    Number of faces shared with processor 94 = 1409
    Number of processor patches = 5
    Number of processor faces = 5619
    Number of boundary faces = 981

Processor 91
    Number of cells = 36094
    Number of faces shared with processor 66 = 1
    Number of faces shared with processor 67 = 946
    Number of faces shared with processor 87 = 1444
    Number of faces shared with processor 90 = 956
    Number of faces shared with processor 94 = 2
    Number of faces shared with processor 95 = 1439
    Number of processor patches = 6
    Number of processor faces = 4788
    Number of boundary faces = 1900

Processor 92
    Number of cells = 35894
    Number of faces shared with processor 64 = 1
    Number of faces shared with processor 68 = 978
    Number of faces shared with processor 88 = 1416
    Number of faces shared with processor 89 = 1
    Number of faces shared with processor 93 = 977
    Number of processor patches = 5
    Number of processor faces = 3373
    Number of boundary faces = 3315

Processor 93
    Number of cells = 35250
    Number of faces shared with processor 69 = 925
    Number of faces shared with processor 89 = 1420
    Number of faces shared with processor 92 = 977
    Number of faces shared with processor 94 = 950
    Number of processor patches = 4
    Number of processor faces = 4272
    Number of boundary faces = 2344

Processor 94
    Number of cells = 35575
    Number of faces shared with processor 70 = 950
    Number of faces shared with processor 90 = 1409
    Number of faces shared with processor 91 = 2
    Number of faces shared with processor 93 = 950
    Number of faces shared with processor 95 = 999
    Number of processor patches = 5
    Number of processor faces = 4310
    Number of boundary faces = 2360

Processor 95
    Number of cells = 35675
    Number of faces shared with processor 71 = 925
    Number of faces shared with processor 91 = 1439
    Number of faces shared with processor 94 = 999
    Number of processor patches = 3
    Number of processor faces = 3363
    Number of boundary faces = 3315

Number of processor faces = 246648
Max number of cells = 36100 (2.68447% above average 35156.2)
Max number of processor patches = 8 (56.0976% above average 5.125)
Max number of faces between processors = 6636 (29.1427% above average 5138.5)

