/*---------------------------------------------------------------------------*\
| =========                 |                                                 |
| \\      /  F ield         | OpenFOAM: The Open Source CFD Toolbox           |
|  \\    /   O peration     | Version:  2.1.0                                 |
|   \\  /    A nd           | Web:      www.OpenFOAM.org                      |
|    \\/     M anipulation  |                                                 |
\*---------------------------------------------------------------------------*/
Build  : 2.1.0-bd7367f93311
Exec   : snappyHexMesh -overwrite
Date   : Sep 27 2014
Time   : 19:27:02
Host   : "n0136.ten.osc.edu"
PID    : 6820
Case   : /nfs/05/ndem0010/crimson_files/ContainerFill/8
nProcs : 1
sigFpe : Enabling floating point exception trapping (FOAM_SIGFPE).
fileModificationChecking : Monitoring run-time modified files using timeStampMaster
allowSystemOperations : Disallowing user-supplied system call operations

// * * * * * * * * * * * * * * * * * * * * * * * * * * * * * * * * * * * * * //
Create time

Create mesh for time = 0

// using new solver syntax:
U
{
    solver          PBiCG;
    preconditioner  DILU;
    tolerance       0.001;
    relTol          0.01;
}

// using new solver syntax:
k
{
    solver          PBiCG;
    preconditioner  DILU;
    tolerance       0.001;
    relTol          0.01;
}

// using new solver syntax:
epsilon
{
    solver          PBiCG;
    preconditioner  DILU;
    tolerance       0.001;
    relTol          0.01;
}

// using new solver syntax:
omega
{
    solver          PBiCG;
    preconditioner  DILU;
    tolerance       1;
    relTol          1;
}

// using new solver syntax:
nuTilda
{
    solver          PBiCG;
    preconditioner  DILU;
    tolerance       1;
    relTol          1;
}

// using new solver syntax:
UFinal
{
    solver          PBiCG;
    preconditioner  DILU;
    tolerance       0.001;
    relTol          0.01;
}

// using new solver syntax:
kFinal
{
    solver          PBiCG;
    preconditioner  DILU;
    tolerance       0.001;
    relTol          0.01;
}

// using new solver syntax:
epsilonFinal
{
    solver          PBiCG;
    preconditioner  DILU;
    tolerance       0.001;
    relTol          0.01;
}

// using new solver syntax:
omegaFinal
{
    solver          PBiCG;
    preconditioner  DILU;
    tolerance       1;
    relTol          1;
}

// using new solver syntax:
nuTildaFinal
{
    solver          PBiCG;
    preconditioner  DILU;
    tolerance       1;
    relTol          1;
}

Read mesh in = 25.51 s

Overall mesh bounding box  : (-0.999938 -1.02 -0.49) (0.999938 1.02 1.51)
Relative tolerance         : 1e-06
Absolute matching distance : 3.48728e-06

Reading refinement surfaces.
Read refinement surfaces in = 0.01 s

Reading refinement shells.
Read refinement shells in = 0 s

Setting refinement level of surface to be consistent with shells.
Checked shell refinement in = 0 s

Reading features.
Read features in = 0 s


Determining initial surface intersections
-----------------------------------------

Edge intersection testing:
    Number of edges             : 10192500
    Number of edges to retest   : 10192500
    Number of intersected edges : 30723
Calculated surface intersections in = 21.12 s

Initial mesh : cells:3375000  faces:10192500  points:3442951
Cells per refinement level:
    0	3375000

Adding patches for surface regions
----------------------------------

Patch	Type	Region
-----	----	------
inlet1:

6	wall	inlet1_inlet1

inlet2:

7	wall	inlet2_inlet2

outlet1:

8	wall	outlet1_outlet1

walls:

9	wall	walls_wall

Added patches in = 0.23 s

Selecting decompositionMethod simple

Refinement phase
----------------

Found point (0.05 0.15 0.05) in cell 912978 on processor 0

Surface refinement iteration 0
------------------------------

No cells marked for refinement since reached limit 2000000.
Determined cells to refine in = 5.42 s
Selected for refinement : 0 cells (out of 3375000)
Stopping refining since too few cells selected.


Removing mesh beyond surface intersections
------------------------------------------

Found point (0.05 0.15 0.05) in cell 912978 in global region 1 out of 2 regions.
Keeping all cells in region 1 containing point (0.05 0.15 0.05)
Selected for keeping : 351308 cells.
Edge intersection testing:
    Number of edges             : 1070094
    Number of edges to retest   : 32340
    Number of intersected edges : 30723

Shell refinement iteration 0
----------------------------

Marked for refinement due to refinement shells    : 0 cells.
Determined cells to refine in = 5.67 s
Selected for internal refinement : 0 cells (out of 351308)
Stopping refining since too few cells selected.


Splitting mesh at surface intersections
---------------------------------------

Introducing baffles for 30723 faces that are intersected by the surface.

Edge intersection testing:
    Number of edges             : 1100817
    Number of edges to retest   : 201815
    Number of intersected edges : 61446
Created baffles in = 1.46 s


After introducing baffles : cells:351308  faces:1100817  points:367709
Cells per refinement level:
    0	351308

Introducing baffles to block off problem cells
----------------------------------------------

markFacesOnProblemCells : marked 62655 additional internal faces to be converted into baffles.
Analyzed problem cells in = 0.68 s


Introducing baffles to delete problem cells.

Edge intersection testing:
    Number of edges             : 1163472
    Number of edges to retest   : 188586
    Number of intersected edges : 61446
Created baffles in = 1.38 s


After introducing baffles : cells:351308  faces:1163472  points:367709
Cells per refinement level:
    0	351308

Remove unreachable sections of mesh
-----------------------------------

Keeping all cells in region 1461 containing point (0.05 0.15 0.05)
Selected for keeping : 319879 cells.
Edge intersection testing:
    Number of edges             : 974898
    Number of edges to retest   : 0
    Number of intersected edges : 30520
Split mesh in = 1.16 s


After subsetting : cells:319879  faces:974898  points:335365
Cells per refinement level:
    0	319879

Handling cells with snap problems
---------------------------------

Introducing baffles for 30520 faces that are intersected by the surface.

Edge intersection testing:
    Number of edges             : 974898
    Number of edges to retest   : 98973
    Number of intersected edges : 30520
Created baffles in = 0.93 s


After introducing baffles : cells:319879  faces:974898  points:335365
Cells per refinement level:
    0	319879

Introducing baffles to block off problem cells
----------------------------------------------

markFacesOnProblemCells : marked 0 additional internal faces to be converted into baffles.
Analyzed problem cells in = 0.57 s


Introducing baffles to delete problem cells.

Edge intersection testing:
    Number of edges             : 974898
    Number of edges to retest   : 0
    Number of intersected edges : 30520
Created baffles in = 0.63 s


After introducing baffles : cells:319879  faces:974898  points:335365
Cells per refinement level:
    0	319879

Remove unreachable sections of mesh
-----------------------------------

Keeping all cells in region 0 containing point (0.05 0.15 0.05)
Selected for keeping : 319879 cells.
Edge intersection testing:
    Number of edges             : 974898
    Number of edges to retest   : 0
    Number of intersected edges : 30520
Split mesh in = 0.99 s


After subsetting : cells:319879  faces:974898  points:335365
Cells per refinement level:
    0	319879
dupNonManifoldPoints : Found : 0 non-manifold points (out of 335365)
Edge intersection testing:
    Number of edges             : 974898
    Number of edges to retest   : 0
    Number of intersected edges : 30520
getDuplicateFaces : found 0 pairs of duplicate faces.

Detected unsplittable baffles : 0

Merge refined boundary faces
----------------------------

Merging 0 sets of faces.

No faces merged ...

Merging all points on surface that
- are used by only two boundary faces and
- make an angle with a cosine of more than 0.707107.

No straight edges simplified and no points removed ...
Refined mesh : cells:319879  faces:974898  points:335365
Cells per refinement level:
    0	319879
Writing mesh to time constant
Wrote mesh in = 6.76 s.
Mesh refined in = 25.65 s.

Morphing phase
--------------

Constructing mesh displacer ...
Using mesh parameters 
{
    maxNonOrtho     65;
    maxBoundarySkewness 20;
    maxInternalSkewness 4;
    maxConcave      80;
    minFlatness     0.5;
    minVol          1e-13;
    minTetQuality   1e-30;
    minArea         -1;
    minTwist        0.02;
    minDeterminant  0.001;
    minFaceWeight   0.02;
    minVolRatio     0.01;
    minTriangleTwist -1;
    nSmoothScale    4;
    errorReduction  0.75;
}


Checking initial mesh ...
Checking faces in error :
    non-orthogonality >  65 degrees                        : 0
    faces with face pyramid volume < 1e-13                 : 0
    faces with face-decomposition tet quality < 1e-30      : 0
    faces with concavity >  80 degrees                     : 0
    faces with skewness >   4 (internal) or  20 (boundary) : 0
    faces with interpolation weights (0..1)  <  0.02       : 0
    faces with volume ratio of neighbour cells <  0.01     : 0
    faces with face twist <  0.02                          : 0
    faces on cells with determinant < 0.001                : 0
Detected 0 illegal faces (concave, zero area or negative cell pyramid volume)
Checked initial mesh in = 1.75 s


Smoothing patch points ...
Smoothing iteration 0
Found 0 non-mainfold point(s).

Scaling iteration 0
Moving mesh using diplacement scaling : min:1  max:1
Checking faces in error :
    non-orthogonality >  65 degrees                        : 0
    faces with face pyramid volume < 1e-13                 : 0
    faces with face-decomposition tet quality < 1e-30      : 0
    faces with concavity >  80 degrees                     : 0
    faces with skewness >   4 (internal) or  20 (boundary) : 0
    faces with interpolation weights (0..1)  <  0.02       : 0
    faces with volume ratio of neighbour cells <  0.01     : 0
    faces with face twist <  0.02                          : 0
    faces on cells with determinant < 0.001                : 0
Successfully moved mesh

Smoothing iteration 1
Found 0 non-mainfold point(s).

Scaling iteration 0
Moving mesh using diplacement scaling : min:1  max:1
Checking faces in error :
    non-orthogonality >  65 degrees                        : 0
    faces with face pyramid volume < 1e-13                 : 0
    faces with face-decomposition tet quality < 1e-30      : 0
    faces with concavity >  80 degrees                     : 0
    faces with skewness >   4 (internal) or  20 (boundary) : 0
    faces with interpolation weights (0..1)  <  0.02       : 0
    faces with volume ratio of neighbour cells <  0.01     : 0
    faces with face twist <  0.02                          : 0
    faces on cells with determinant < 0.001                : 0
Successfully moved mesh

Smoothing iteration 2
Found 0 non-mainfold point(s).

Scaling iteration 0
Moving mesh using diplacement scaling : min:1  max:1
Checking faces in error :
    non-orthogonality >  65 degrees                        : 0
    faces with face pyramid volume < 1e-13                 : 0
    faces with face-decomposition tet quality < 1e-30      : 0
    faces with concavity >  80 degrees                     : 0
    faces with skewness >   4 (internal) or  20 (boundary) : 0
    faces with interpolation weights (0..1)  <  0.02       : 0
    faces with volume ratio of neighbour cells <  0.01     : 0
    faces with face twist <  0.02                          : 0
    faces on cells with determinant < 0.001                : 0
Successfully moved mesh

Patch points smoothed in = 6.75 s



Morph iteration 0
-----------------
Calculating patchDisplacement as distance to nearest surface point ...
Wanted displacement : average:0.00339076 min:1.60798e-06 max:0.0117313
Calculated surface displacement in = 0.08 s


--> FOAM Warning : Displacement (0.000109596 0 0.000364454) at mesh point 231122 coord (0.218953 0.496487 0.662854) points through the surrounding patch faces
Smoothing displacement ...
Iteration 0
Iteration 10
Iteration 20
Displacement smoothed in = 0.98 s


Moving mesh ...

Iteration 0
Moving mesh using diplacement scaling : min:1  max:1
Checking faces in error :
    non-orthogonality >  65 degrees                        : 0
    faces with face pyramid volume < 1e-13                 : 9
    faces with face-decomposition tet quality < 1e-30      : 6
    faces with concavity >  80 degrees                     : 0
    faces with skewness >   4 (internal) or  20 (boundary) : 0
    faces with interpolation weights (0..1)  <  0.02       : 0
    faces with volume ratio of neighbour cells <  0.01     : 0
    faces with face twist <  0.02                          : 0
    faces on cells with determinant < 0.001                : 0

Iteration 1
Moving mesh using diplacement scaling : min:0.75  max:1
Checking faces in error :
    non-orthogonality >  65 degrees                        : 0
    faces with face pyramid volume < 1e-13                 : 0
    faces with face-decomposition tet quality < 1e-30      : 0
    faces with concavity >  80 degrees                     : 0
    faces with skewness >   4 (internal) or  20 (boundary) : 0
    faces with interpolation weights (0..1)  <  0.02       : 0
    faces with volume ratio of neighbour cells <  0.01     : 0
    faces with face twist <  0.02                          : 0
    faces on cells with determinant < 0.001                : 0
Successfully moved mesh
Moved mesh in = 2.99 s


Repatching faces according to nearest surface ...
Repatched 53 faces in = 0.15 s


Edge intersection testing:
    Number of edges             : 974898
    Number of edges to retest   : 98976
    Number of intersected edges : 30306
Merging 6547 sets of faces.

Edge intersection testing:
    Number of edges             : 967824
    Number of edges to retest   : 26181
    Number of intersected edges : 23264

Undo iteration 0
----------------
Checking faces in error :
    non-orthogonality >  65 degrees                        : 0
    faces with face pyramid volume < 1e-13                 : 0
    faces with face-decomposition tet quality < 1e-30      : 0
    faces with concavity >  80 degrees                     : 0
    faces with skewness >   4 (internal) or  20 (boundary) : 0
    faces with interpolation weights (0..1)  <  0.02       : 0
    faces with volume ratio of neighbour cells <  0.01     : 0
    faces with face twist <  0.02                          : 0
    faces on cells with determinant < 0.001                : 0

Merging all points on surface that
- are used by only two boundary faces and
- make an angle with a cosine of more than 0.866025.

Removing 6053 straight edge points ...

Edge intersection testing:
    Number of edges             : 967824
    Number of edges to retest   : 25513
    Number of intersected edges : 23266

Undo iteration 0
----------------
Checking faces in error :
    non-orthogonality >  65 degrees                        : 0
    faces with face pyramid volume < 1e-13                 : 0
    faces with face-decomposition tet quality < 1e-30      : 0
    faces with concavity >  80 degrees                     : 0
    faces with skewness >   4 (internal) or  20 (boundary) : 0
    faces with interpolation weights (0..1)  <  0.02       : 0
    faces with volume ratio of neighbour cells <  0.01     : 0
    faces with face twist <  0.02                          : 0
    faces on cells with determinant < 0.001                : 0
Snapped mesh : cells:319879  faces:967824  points:328785
Cells per refinement level:
    0	319879
Writing mesh to time constant
Wrote mesh in = 12.25 s.
Mesh snapped in = 24.95 s.
Finished meshing in = 97.47 s.
End

