/*---------------------------------------------------------------------------*\
| =========                 |                                                 |
| \\      /  F ield         | OpenFOAM: The Open Source CFD Toolbox           |
|  \\    /   O peration     | Version:  2.1.0                                 |
|   \\  /    A nd           | Web:      www.OpenFOAM.org                      |
|    \\/     M anipulation  |                                                 |
\*---------------------------------------------------------------------------*/
Build  : 2.1.0-bd7367f93311
Exec   : createPatch -overwrite
Date   : Sep 27 2014
Time   : 19:28:40
Host   : "n0136.ten.osc.edu"
PID    : 6841
Case   : /nfs/05/ndem0010/crimson_files/ContainerFill/8
nProcs : 1
sigFpe : Enabling floating point exception trapping (FOAM_SIGFPE).
fileModificationChecking : Monitoring run-time modified files using timeStampMaster
allowSystemOperations : Disallowing user-supplied system call operations

// * * * * * * * * * * * * * * * * * * * * * * * * * * * * * * * * * * * * * //
Create time

Reading createPatchDict.

Create polyMesh for time = 0


Doing topology modification to order faces.

Synchronising points.

Synchronising points.
Points changed by average:0 max:0

Removing patches with no faces in them.

Removing empty patch maxY at position 0
Removing empty patch minX at position 1
Removing empty patch maxX at position 2
Removing empty patch minY at position 3
Removing empty patch minZ at position 4
Removing empty patch maxZ at position 5
Removing patches.
Writing repatched mesh to 0

End

