/*---------------------------------------------------------------------------*\
| =========                 |                                                 |
| \\      /  F ield         | OpenFOAM: The Open Source CFD Toolbox           |
|  \\    /   O peration     | Version:  2.1.0                                 |
|   \\  /    A nd           | Web:      www.OpenFOAM.org                      |
|    \\/     M anipulation  |                                                 |
\*---------------------------------------------------------------------------*/
Build  : 2.1.0-bd7367f93311
Exec   : decomposePar
Date   : Sep 27 2014
Time   : 19:28:53
Host   : "n0136.ten.osc.edu"
PID    : 6848
Case   : /nfs/05/ndem0010/crimson_files/ContainerFill/8
nProcs : 1
sigFpe : Enabling floating point exception trapping (FOAM_SIGFPE).
fileModificationChecking : Monitoring run-time modified files using timeStampMaster
allowSystemOperations : Disallowing user-supplied system call operations

// * * * * * * * * * * * * * * * * * * * * * * * * * * * * * * * * * * * * * //
Create time

Time = 0
Create mesh

Calculating distribution of cells
Selecting decompositionMethod simple

Finished decomposition in 0.29 s

Calculating original mesh data

Distributing cells to processors

Distributing faces to processors

Distributing points to processors

Constructing processor meshes

Processor 0
    Number of cells = 2601
    Number of faces shared with processor 1 = 220
    Number of faces shared with processor 4 = 248
    Number of faces shared with processor 24 = 230
    Number of processor patches = 3
    Number of processor faces = 698
    Number of boundary faces = 397

Processor 1
    Number of cells = 3716
    Number of faces shared with processor 0 = 220
    Number of faces shared with processor 2 = 258
    Number of faces shared with processor 5 = 321
    Number of faces shared with processor 25 = 180
    Number of processor patches = 4
    Number of processor faces = 979
    Number of boundary faces = 436

Processor 2
    Number of cells = 3716
    Number of faces shared with processor 1 = 258
    Number of faces shared with processor 3 = 220
    Number of faces shared with processor 6 = 321
    Number of faces shared with processor 26 = 180
    Number of processor patches = 4
    Number of processor faces = 979
    Number of boundary faces = 436

Processor 3
    Number of cells = 2563
    Number of faces shared with processor 2 = 220
    Number of faces shared with processor 7 = 234
    Number of faces shared with processor 27 = 220
    Number of processor patches = 3
    Number of processor faces = 674
    Number of boundary faces = 390

Processor 4
    Number of cells = 2901
    Number of faces shared with processor 0 = 248
    Number of faces shared with processor 5 = 232
    Number of faces shared with processor 8 = 252
    Number of faces shared with processor 24 = 2
    Number of faces shared with processor 28 = 233
    Number of processor patches = 5
    Number of processor faces = 967
    Number of boundary faces = 281

Processor 5
    Number of cells = 3868
    Number of faces shared with processor 1 = 321
    Number of faces shared with processor 4 = 232
    Number of faces shared with processor 6 = 264
    Number of faces shared with processor 9 = 332
    Number of faces shared with processor 29 = 187
    Number of processor patches = 5
    Number of processor faces = 1336
    Number of boundary faces = 180

Processor 6
    Number of cells = 3852
    Number of faces shared with processor 2 = 321
    Number of faces shared with processor 5 = 264
    Number of faces shared with processor 7 = 228
    Number of faces shared with processor 10 = 321
    Number of faces shared with processor 30 = 180
    Number of processor patches = 5
    Number of processor faces = 1314
    Number of boundary faces = 180

Processor 7
    Number of cells = 2808
    Number of faces shared with processor 3 = 234
    Number of faces shared with processor 6 = 228
    Number of faces shared with processor 11 = 234
    Number of faces shared with processor 31 = 228
    Number of processor patches = 4
    Number of processor faces = 924
    Number of boundary faces = 276

Processor 8
    Number of cells = 2883
    Number of faces shared with processor 4 = 252
    Number of faces shared with processor 9 = 235
    Number of faces shared with processor 12 = 244
    Number of faces shared with processor 13 = 1
    Number of faces shared with processor 32 = 228
    Number of processor patches = 5
    Number of processor faces = 960
    Number of boundary faces = 282

Processor 9
    Number of cells = 3952
    Number of faces shared with processor 5 = 332
    Number of faces shared with processor 8 = 235
    Number of faces shared with processor 10 = 268
    Number of faces shared with processor 13 = 343
    Number of faces shared with processor 29 = 2
    Number of faces shared with processor 33 = 186
    Number of processor patches = 6
    Number of processor faces = 1366
    Number of boundary faces = 180

Processor 10
    Number of cells = 3871
    Number of faces shared with processor 6 = 321
    Number of faces shared with processor 9 = 268
    Number of faces shared with processor 11 = 228
    Number of faces shared with processor 14 = 333
    Number of faces shared with processor 34 = 188
    Number of processor patches = 5
    Number of processor faces = 1338
    Number of boundary faces = 180

Processor 11
    Number of cells = 2808
    Number of faces shared with processor 7 = 234
    Number of faces shared with processor 10 = 228
    Number of faces shared with processor 15 = 234
    Number of faces shared with processor 35 = 228
    Number of processor patches = 4
    Number of processor faces = 924
    Number of boundary faces = 276

Processor 12
    Number of cells = 2838
    Number of faces shared with processor 8 = 244
    Number of faces shared with processor 13 = 235
    Number of faces shared with processor 16 = 234
    Number of faces shared with processor 36 = 228
    Number of processor patches = 4
    Number of processor faces = 941
    Number of boundary faces = 283

Processor 13
    Number of cells = 3980
    Number of faces shared with processor 8 = 1
    Number of faces shared with processor 9 = 343
    Number of faces shared with processor 12 = 235
    Number of faces shared with processor 14 = 272
    Number of faces shared with processor 17 = 342
    Number of faces shared with processor 18 = 1
    Number of faces shared with processor 37 = 180
    Number of processor patches = 7
    Number of processor faces = 1374
    Number of boundary faces = 181

Processor 14
    Number of cells = 3965
    Number of faces shared with processor 10 = 333
    Number of faces shared with processor 13 = 272
    Number of faces shared with processor 15 = 233
    Number of faces shared with processor 18 = 342
    Number of faces shared with processor 19 = 1
    Number of faces shared with processor 34 = 2
    Number of faces shared with processor 38 = 185
    Number of processor patches = 7
    Number of processor faces = 1368
    Number of boundary faces = 180

Processor 15
    Number of cells = 2838
    Number of faces shared with processor 11 = 234
    Number of faces shared with processor 14 = 233
    Number of faces shared with processor 19 = 249
    Number of faces shared with processor 39 = 238
    Number of processor patches = 4
    Number of processor faces = 954
    Number of boundary faces = 276

Processor 16
    Number of cells = 2808
    Number of faces shared with processor 12 = 234
    Number of faces shared with processor 17 = 228
    Number of faces shared with processor 20 = 234
    Number of faces shared with processor 40 = 228
    Number of processor patches = 4
    Number of processor faces = 924
    Number of boundary faces = 276

Processor 17
    Number of cells = 3929
    Number of faces shared with processor 13 = 342
    Number of faces shared with processor 16 = 228
    Number of faces shared with processor 18 = 273
    Number of faces shared with processor 21 = 321
    Number of faces shared with processor 41 = 180
    Number of processor patches = 5
    Number of processor faces = 1344
    Number of boundary faces = 194

Processor 18
    Number of cells = 4137
    Number of faces shared with processor 13 = 1
    Number of faces shared with processor 14 = 342
    Number of faces shared with processor 17 = 273
    Number of faces shared with processor 19 = 275
    Number of faces shared with processor 22 = 347
    Number of faces shared with processor 23 = 1
    Number of faces shared with processor 42 = 181
    Number of faces shared with processor 43 = 2
    Number of faces shared with processor 46 = 1
    Number of processor patches = 9
    Number of processor faces = 1423
    Number of boundary faces = 187

Processor 19
    Number of cells = 2809
    Number of faces shared with processor 14 = 1
    Number of faces shared with processor 15 = 249
    Number of faces shared with processor 18 = 275
    Number of faces shared with processor 23 = 220
    Number of faces shared with processor 39 = 2
    Number of faces shared with processor 43 = 265
    Number of faces shared with processor 47 = 1
    Number of processor patches = 7
    Number of processor faces = 1013
    Number of boundary faces = 289

Processor 20
    Number of cells = 2808
    Number of faces shared with processor 16 = 234
    Number of faces shared with processor 21 = 228
    Number of faces shared with processor 44 = 228
    Number of processor patches = 3
    Number of processor faces = 690
    Number of boundary faces = 522

Processor 21
    Number of cells = 3852
    Number of faces shared with processor 17 = 321
    Number of faces shared with processor 20 = 228
    Number of faces shared with processor 22 = 264
    Number of faces shared with processor 45 = 180
    Number of processor patches = 4
    Number of processor faces = 993
    Number of boundary faces = 504

Processor 22
    Number of cells = 3997
    Number of faces shared with processor 18 = 347
    Number of faces shared with processor 21 = 264
    Number of faces shared with processor 23 = 239
    Number of faces shared with processor 46 = 224
    Number of processor patches = 4
    Number of processor faces = 1074
    Number of boundary faces = 526

Processor 23
    Number of cells = 2470
    Number of faces shared with processor 18 = 1
    Number of faces shared with processor 19 = 220
    Number of faces shared with processor 22 = 239
    Number of faces shared with processor 47 = 235
    Number of processor patches = 4
    Number of processor faces = 695
    Number of boundary faces = 502

Processor 24
    Number of cells = 4111
    Number of faces shared with processor 0 = 230
    Number of faces shared with processor 4 = 2
    Number of faces shared with processor 25 = 202
    Number of faces shared with processor 28 = 329
    Number of faces shared with processor 48 = 301
    Number of faces shared with processor 49 = 1
    Number of processor patches = 6
    Number of processor faces = 1065
    Number of boundary faces = 466

Processor 25
    Number of cells = 2839
    Number of faces shared with processor 1 = 180
    Number of faces shared with processor 24 = 202
    Number of faces shared with processor 26 = 184
    Number of faces shared with processor 29 = 247
    Number of faces shared with processor 30 = 1
    Number of faces shared with processor 49 = 200
    Number of processor patches = 6
    Number of processor faces = 1014
    Number of boundary faces = 230

Processor 26
    Number of cells = 2720
    Number of faces shared with processor 2 = 180
    Number of faces shared with processor 25 = 184
    Number of faces shared with processor 27 = 180
    Number of faces shared with processor 30 = 237
    Number of faces shared with processor 50 = 188
    Number of processor patches = 5
    Number of processor faces = 969
    Number of boundary faces = 225

Processor 27
    Number of cells = 3718
    Number of faces shared with processor 3 = 220
    Number of faces shared with processor 26 = 180
    Number of faces shared with processor 31 = 321
    Number of faces shared with processor 51 = 258
    Number of processor patches = 4
    Number of processor faces = 979
    Number of boundary faces = 437

Processor 28
    Number of cells = 3861
    Number of faces shared with processor 4 = 233
    Number of faces shared with processor 24 = 329
    Number of faces shared with processor 29 = 183
    Number of faces shared with processor 32 = 321
    Number of faces shared with processor 52 = 264
    Number of processor patches = 5
    Number of processor faces = 1330
    Number of boundary faces = 180

Processor 29
    Number of cells = 2789
    Number of faces shared with processor 5 = 187
    Number of faces shared with processor 9 = 2
    Number of faces shared with processor 25 = 247
    Number of faces shared with processor 28 = 183
    Number of faces shared with processor 30 = 186
    Number of faces shared with processor 33 = 234
    Number of faces shared with processor 34 = 1
    Number of faces shared with processor 53 = 180
    Number of processor patches = 8
    Number of processor faces = 1220
    Number of boundary faces = 0

Processor 30
    Number of cells = 2802
    Number of faces shared with processor 6 = 180
    Number of faces shared with processor 25 = 1
    Number of faces shared with processor 26 = 237
    Number of faces shared with processor 29 = 186
    Number of faces shared with processor 31 = 184
    Number of faces shared with processor 34 = 246
    Number of faces shared with processor 35 = 1
    Number of faces shared with processor 50 = 2
    Number of faces shared with processor 54 = 185
    Number of processor patches = 9
    Number of processor faces = 1222
    Number of boundary faces = 0

Processor 31
    Number of cells = 3872
    Number of faces shared with processor 7 = 228
    Number of faces shared with processor 27 = 321
    Number of faces shared with processor 30 = 184
    Number of faces shared with processor 35 = 333
    Number of faces shared with processor 55 = 272
    Number of processor patches = 5
    Number of processor faces = 1338
    Number of boundary faces = 180

Processor 32
    Number of cells = 3852
    Number of faces shared with processor 8 = 228
    Number of faces shared with processor 28 = 321
    Number of faces shared with processor 33 = 180
    Number of faces shared with processor 36 = 321
    Number of faces shared with processor 56 = 264
    Number of processor patches = 5
    Number of processor faces = 1314
    Number of boundary faces = 180

Processor 33
    Number of cells = 2712
    Number of faces shared with processor 9 = 186
    Number of faces shared with processor 29 = 234
    Number of faces shared with processor 32 = 180
    Number of faces shared with processor 34 = 183
    Number of faces shared with processor 37 = 225
    Number of faces shared with processor 57 = 180
    Number of processor patches = 6
    Number of processor faces = 1188
    Number of boundary faces = 0

Processor 34
    Number of cells = 2794
    Number of faces shared with processor 10 = 188
    Number of faces shared with processor 14 = 2
    Number of faces shared with processor 29 = 1
    Number of faces shared with processor 30 = 246
    Number of faces shared with processor 33 = 183
    Number of faces shared with processor 35 = 187
    Number of faces shared with processor 38 = 233
    Number of faces shared with processor 58 = 180
    Number of processor patches = 8
    Number of processor faces = 1220
    Number of boundary faces = 0

Processor 35
    Number of cells = 3973
    Number of faces shared with processor 11 = 228
    Number of faces shared with processor 30 = 1
    Number of faces shared with processor 31 = 333
    Number of faces shared with processor 34 = 187
    Number of faces shared with processor 39 = 354
    Number of faces shared with processor 55 = 2
    Number of faces shared with processor 59 = 276
    Number of processor patches = 7
    Number of processor faces = 1381
    Number of boundary faces = 181

Processor 36
    Number of cells = 3852
    Number of faces shared with processor 12 = 228
    Number of faces shared with processor 32 = 321
    Number of faces shared with processor 37 = 180
    Number of faces shared with processor 40 = 321
    Number of faces shared with processor 60 = 264
    Number of processor patches = 5
    Number of processor faces = 1314
    Number of boundary faces = 180

Processor 37
    Number of cells = 2700
    Number of faces shared with processor 13 = 180
    Number of faces shared with processor 33 = 225
    Number of faces shared with processor 36 = 180
    Number of faces shared with processor 38 = 180
    Number of faces shared with processor 41 = 225
    Number of faces shared with processor 61 = 180
    Number of processor patches = 6
    Number of processor faces = 1170
    Number of boundary faces = 0

Processor 38
    Number of cells = 2709
    Number of faces shared with processor 14 = 185
    Number of faces shared with processor 34 = 233
    Number of faces shared with processor 37 = 180
    Number of faces shared with processor 39 = 183
    Number of faces shared with processor 42 = 225
    Number of faces shared with processor 62 = 180
    Number of processor patches = 6
    Number of processor faces = 1186
    Number of boundary faces = 0

Processor 39
    Number of cells = 4007
    Number of faces shared with processor 15 = 238
    Number of faces shared with processor 19 = 2
    Number of faces shared with processor 35 = 354
    Number of faces shared with processor 38 = 183
    Number of faces shared with processor 43 = 335
    Number of faces shared with processor 63 = 264
    Number of processor patches = 6
    Number of processor faces = 1376
    Number of boundary faces = 189

Processor 40
    Number of cells = 3852
    Number of faces shared with processor 16 = 228
    Number of faces shared with processor 36 = 321
    Number of faces shared with processor 41 = 180
    Number of faces shared with processor 44 = 321
    Number of faces shared with processor 64 = 264
    Number of processor patches = 5
    Number of processor faces = 1314
    Number of boundary faces = 180

Processor 41
    Number of cells = 2700
    Number of faces shared with processor 17 = 180
    Number of faces shared with processor 37 = 225
    Number of faces shared with processor 40 = 180
    Number of faces shared with processor 42 = 180
    Number of faces shared with processor 45 = 225
    Number of faces shared with processor 65 = 180
    Number of processor patches = 6
    Number of processor faces = 1170
    Number of boundary faces = 0

Processor 42
    Number of cells = 2701
    Number of faces shared with processor 18 = 181
    Number of faces shared with processor 38 = 225
    Number of faces shared with processor 41 = 180
    Number of faces shared with processor 43 = 182
    Number of faces shared with processor 46 = 226
    Number of faces shared with processor 66 = 180
    Number of processor patches = 6
    Number of processor faces = 1174
    Number of boundary faces = 0

Processor 43
    Number of cells = 3953
    Number of faces shared with processor 18 = 2
    Number of faces shared with processor 19 = 265
    Number of faces shared with processor 39 = 335
    Number of faces shared with processor 42 = 182
    Number of faces shared with processor 46 = 2
    Number of faces shared with processor 47 = 331
    Number of faces shared with processor 67 = 264
    Number of processor patches = 7
    Number of processor faces = 1381
    Number of boundary faces = 185

Processor 44
    Number of cells = 3916
    Number of faces shared with processor 20 = 228
    Number of faces shared with processor 40 = 321
    Number of faces shared with processor 45 = 180
    Number of faces shared with processor 68 = 285
    Number of processor patches = 4
    Number of processor faces = 1014
    Number of boundary faces = 521

Processor 45
    Number of cells = 2700
    Number of faces shared with processor 21 = 180
    Number of faces shared with processor 41 = 225
    Number of faces shared with processor 44 = 180
    Number of faces shared with processor 46 = 180
    Number of faces shared with processor 69 = 180
    Number of processor patches = 5
    Number of processor faces = 945
    Number of boundary faces = 225

Processor 46
    Number of cells = 2896
    Number of faces shared with processor 18 = 1
    Number of faces shared with processor 22 = 224
    Number of faces shared with processor 42 = 226
    Number of faces shared with processor 43 = 2
    Number of faces shared with processor 45 = 180
    Number of faces shared with processor 47 = 218
    Number of faces shared with processor 70 = 180
    Number of processor patches = 7
    Number of processor faces = 1031
    Number of boundary faces = 255

Processor 47
    Number of cells = 3941
    Number of faces shared with processor 19 = 1
    Number of faces shared with processor 23 = 235
    Number of faces shared with processor 43 = 331
    Number of faces shared with processor 46 = 218
    Number of faces shared with processor 71 = 264
    Number of processor patches = 5
    Number of processor faces = 1049
    Number of boundary faces = 512

Processor 48
    Number of cells = 3937
    Number of faces shared with processor 24 = 301
    Number of faces shared with processor 49 = 222
    Number of faces shared with processor 52 = 327
    Number of faces shared with processor 72 = 247
    Number of processor patches = 4
    Number of processor faces = 1097
    Number of boundary faces = 428

Processor 49
    Number of cells = 3209
    Number of faces shared with processor 24 = 1
    Number of faces shared with processor 25 = 200
    Number of faces shared with processor 48 = 222
    Number of faces shared with processor 50 = 195
    Number of faces shared with processor 52 = 1
    Number of faces shared with processor 53 = 234
    Number of faces shared with processor 73 = 233
    Number of faces shared with processor 77 = 1
    Number of processor patches = 8
    Number of processor faces = 1087
    Number of boundary faces = 255

Processor 50
    Number of cells = 2916
    Number of faces shared with processor 26 = 188
    Number of faces shared with processor 30 = 2
    Number of faces shared with processor 49 = 195
    Number of faces shared with processor 51 = 192
    Number of faces shared with processor 54 = 233
    Number of faces shared with processor 74 = 195
    Number of processor patches = 6
    Number of processor faces = 1005
    Number of boundary faces = 225

Processor 51
    Number of cells = 3867
    Number of faces shared with processor 27 = 258
    Number of faces shared with processor 50 = 192
    Number of faces shared with processor 55 = 350
    Number of faces shared with processor 75 = 241
    Number of processor patches = 4
    Number of processor faces = 1041
    Number of boundary faces = 440

Processor 52
    Number of cells = 3927
    Number of faces shared with processor 28 = 264
    Number of faces shared with processor 48 = 327
    Number of faces shared with processor 49 = 1
    Number of faces shared with processor 53 = 195
    Number of faces shared with processor 56 = 321
    Number of faces shared with processor 76 = 254
    Number of faces shared with processor 77 = 2
    Number of processor patches = 7
    Number of processor faces = 1364
    Number of boundary faces = 180

Processor 53
    Number of cells = 2725
    Number of faces shared with processor 29 = 180
    Number of faces shared with processor 49 = 234
    Number of faces shared with processor 52 = 195
    Number of faces shared with processor 54 = 180
    Number of faces shared with processor 57 = 225
    Number of faces shared with processor 77 = 190
    Number of processor patches = 6
    Number of processor faces = 1204
    Number of boundary faces = 0

Processor 54
    Number of cells = 2709
    Number of faces shared with processor 30 = 185
    Number of faces shared with processor 50 = 233
    Number of faces shared with processor 53 = 180
    Number of faces shared with processor 55 = 183
    Number of faces shared with processor 58 = 225
    Number of faces shared with processor 78 = 180
    Number of processor patches = 6
    Number of processor faces = 1186
    Number of boundary faces = 0

Processor 55
    Number of cells = 3979
    Number of faces shared with processor 31 = 272
    Number of faces shared with processor 35 = 2
    Number of faces shared with processor 51 = 350
    Number of faces shared with processor 54 = 183
    Number of faces shared with processor 59 = 339
    Number of faces shared with processor 79 = 228
    Number of processor patches = 6
    Number of processor faces = 1374
    Number of boundary faces = 186

Processor 56
    Number of cells = 3852
    Number of faces shared with processor 32 = 264
    Number of faces shared with processor 52 = 321
    Number of faces shared with processor 57 = 180
    Number of faces shared with processor 60 = 321
    Number of faces shared with processor 80 = 228
    Number of processor patches = 5
    Number of processor faces = 1314
    Number of boundary faces = 180

Processor 57
    Number of cells = 2700
    Number of faces shared with processor 33 = 180
    Number of faces shared with processor 53 = 225
    Number of faces shared with processor 56 = 180
    Number of faces shared with processor 58 = 180
    Number of faces shared with processor 61 = 225
    Number of faces shared with processor 81 = 180
    Number of processor patches = 6
    Number of processor faces = 1170
    Number of boundary faces = 0

Processor 58
    Number of cells = 2700
    Number of faces shared with processor 34 = 180
    Number of faces shared with processor 54 = 225
    Number of faces shared with processor 57 = 180
    Number of faces shared with processor 59 = 180
    Number of faces shared with processor 62 = 225
    Number of faces shared with processor 82 = 180
    Number of processor patches = 6
    Number of processor faces = 1170
    Number of boundary faces = 0

Processor 59
    Number of cells = 3896
    Number of faces shared with processor 35 = 276
    Number of faces shared with processor 55 = 339
    Number of faces shared with processor 58 = 180
    Number of faces shared with processor 63 = 321
    Number of faces shared with processor 83 = 228
    Number of processor patches = 5
    Number of processor faces = 1344
    Number of boundary faces = 186

Processor 60
    Number of cells = 3852
    Number of faces shared with processor 36 = 264
    Number of faces shared with processor 56 = 321
    Number of faces shared with processor 61 = 180
    Number of faces shared with processor 64 = 321
    Number of faces shared with processor 84 = 228
    Number of processor patches = 5
    Number of processor faces = 1314
    Number of boundary faces = 180

Processor 61
    Number of cells = 2700
    Number of faces shared with processor 37 = 180
    Number of faces shared with processor 57 = 225
    Number of faces shared with processor 60 = 180
    Number of faces shared with processor 62 = 180
    Number of faces shared with processor 65 = 225
    Number of faces shared with processor 85 = 180
    Number of processor patches = 6
    Number of processor faces = 1170
    Number of boundary faces = 0

Processor 62
    Number of cells = 2700
    Number of faces shared with processor 38 = 180
    Number of faces shared with processor 58 = 225
    Number of faces shared with processor 61 = 180
    Number of faces shared with processor 63 = 180
    Number of faces shared with processor 66 = 225
    Number of faces shared with processor 86 = 180
    Number of processor patches = 6
    Number of processor faces = 1170
    Number of boundary faces = 0

Processor 63
    Number of cells = 3852
    Number of faces shared with processor 39 = 264
    Number of faces shared with processor 59 = 321
    Number of faces shared with processor 62 = 180
    Number of faces shared with processor 67 = 321
    Number of faces shared with processor 87 = 228
    Number of processor patches = 5
    Number of processor faces = 1314
    Number of boundary faces = 180

Processor 64
    Number of cells = 3852
    Number of faces shared with processor 40 = 264
    Number of faces shared with processor 60 = 321
    Number of faces shared with processor 65 = 180
    Number of faces shared with processor 68 = 321
    Number of faces shared with processor 88 = 228
    Number of processor patches = 5
    Number of processor faces = 1314
    Number of boundary faces = 180

Processor 65
    Number of cells = 2700
    Number of faces shared with processor 41 = 180
    Number of faces shared with processor 61 = 225
    Number of faces shared with processor 64 = 180
    Number of faces shared with processor 66 = 180
    Number of faces shared with processor 69 = 225
    Number of faces shared with processor 89 = 180
    Number of processor patches = 6
    Number of processor faces = 1170
    Number of boundary faces = 0

Processor 66
    Number of cells = 2700
    Number of faces shared with processor 42 = 180
    Number of faces shared with processor 62 = 225
    Number of faces shared with processor 65 = 180
    Number of faces shared with processor 67 = 180
    Number of faces shared with processor 70 = 225
    Number of faces shared with processor 90 = 180
    Number of processor patches = 6
    Number of processor faces = 1170
    Number of boundary faces = 0

Processor 67
    Number of cells = 3852
    Number of faces shared with processor 43 = 264
    Number of faces shared with processor 63 = 321
    Number of faces shared with processor 66 = 180
    Number of faces shared with processor 71 = 321
    Number of faces shared with processor 91 = 228
    Number of processor patches = 5
    Number of processor faces = 1314
    Number of boundary faces = 180

Processor 68
    Number of cells = 4057
    Number of faces shared with processor 44 = 285
    Number of faces shared with processor 64 = 321
    Number of faces shared with processor 69 = 192
    Number of faces shared with processor 92 = 228
    Number of processor patches = 4
    Number of processor faces = 1026
    Number of boundary faces = 525

Processor 69
    Number of cells = 2706
    Number of faces shared with processor 45 = 180
    Number of faces shared with processor 65 = 225
    Number of faces shared with processor 68 = 192
    Number of faces shared with processor 70 = 180
    Number of faces shared with processor 93 = 180
    Number of processor patches = 5
    Number of processor faces = 957
    Number of boundary faces = 227

Processor 70
    Number of cells = 2710
    Number of faces shared with processor 46 = 180
    Number of faces shared with processor 66 = 225
    Number of faces shared with processor 69 = 180
    Number of faces shared with processor 71 = 192
    Number of faces shared with processor 94 = 184
    Number of faces shared with processor 95 = 1
    Number of processor patches = 6
    Number of processor faces = 962
    Number of boundary faces = 233

Processor 71
    Number of cells = 3872
    Number of faces shared with processor 47 = 264
    Number of faces shared with processor 67 = 321
    Number of faces shared with processor 70 = 192
    Number of faces shared with processor 95 = 233
    Number of processor patches = 4
    Number of processor faces = 1010
    Number of boundary faces = 506

Processor 72
    Number of cells = 2451
    Number of faces shared with processor 48 = 247
    Number of faces shared with processor 73 = 246
    Number of faces shared with processor 76 = 204
    Number of processor patches = 3
    Number of processor faces = 697
    Number of boundary faces = 388

Processor 73
    Number of cells = 4052
    Number of faces shared with processor 49 = 233
    Number of faces shared with processor 72 = 246
    Number of faces shared with processor 74 = 302
    Number of faces shared with processor 77 = 334
    Number of processor patches = 4
    Number of processor faces = 1115
    Number of boundary faces = 436

Processor 74
    Number of cells = 4095
    Number of faces shared with processor 50 = 195
    Number of faces shared with processor 73 = 302
    Number of faces shared with processor 75 = 237
    Number of faces shared with processor 78 = 321
    Number of processor patches = 4
    Number of processor faces = 1055
    Number of boundary faces = 464

Processor 75
    Number of cells = 2803
    Number of faces shared with processor 51 = 241
    Number of faces shared with processor 74 = 237
    Number of faces shared with processor 79 = 234
    Number of processor patches = 3
    Number of processor faces = 712
    Number of boundary faces = 415

Processor 76
    Number of cells = 2548
    Number of faces shared with processor 52 = 254
    Number of faces shared with processor 72 = 204
    Number of faces shared with processor 77 = 249
    Number of faces shared with processor 80 = 225
    Number of processor patches = 4
    Number of processor faces = 932
    Number of boundary faces = 276

Processor 77
    Number of cells = 4012
    Number of faces shared with processor 49 = 1
    Number of faces shared with processor 52 = 2
    Number of faces shared with processor 53 = 190
    Number of faces shared with processor 73 = 334
    Number of faces shared with processor 76 = 249
    Number of faces shared with processor 78 = 264
    Number of faces shared with processor 80 = 2
    Number of faces shared with processor 81 = 328
    Number of processor patches = 8
    Number of processor faces = 1370
    Number of boundary faces = 180

Processor 78
    Number of cells = 3852
    Number of faces shared with processor 54 = 180
    Number of faces shared with processor 74 = 321
    Number of faces shared with processor 77 = 264
    Number of faces shared with processor 79 = 228
    Number of faces shared with processor 82 = 321
    Number of processor patches = 5
    Number of processor faces = 1314
    Number of boundary faces = 180

Processor 79
    Number of cells = 2808
    Number of faces shared with processor 55 = 228
    Number of faces shared with processor 75 = 234
    Number of faces shared with processor 78 = 228
    Number of faces shared with processor 83 = 234
    Number of processor patches = 4
    Number of processor faces = 924
    Number of boundary faces = 276

Processor 80
    Number of cells = 2787
    Number of faces shared with processor 56 = 228
    Number of faces shared with processor 76 = 225
    Number of faces shared with processor 77 = 2
    Number of faces shared with processor 81 = 243
    Number of faces shared with processor 84 = 234
    Number of processor patches = 5
    Number of processor faces = 932
    Number of boundary faces = 276

Processor 81
    Number of cells = 3873
    Number of faces shared with processor 57 = 180
    Number of faces shared with processor 77 = 328
    Number of faces shared with processor 80 = 243
    Number of faces shared with processor 82 = 264
    Number of faces shared with processor 85 = 321
    Number of processor patches = 5
    Number of processor faces = 1336
    Number of boundary faces = 180

Processor 82
    Number of cells = 3852
    Number of faces shared with processor 58 = 180
    Number of faces shared with processor 78 = 321
    Number of faces shared with processor 81 = 264
    Number of faces shared with processor 83 = 228
    Number of faces shared with processor 86 = 321
    Number of processor patches = 5
    Number of processor faces = 1314
    Number of boundary faces = 180

Processor 83
    Number of cells = 2808
    Number of faces shared with processor 59 = 228
    Number of faces shared with processor 79 = 234
    Number of faces shared with processor 82 = 228
    Number of faces shared with processor 87 = 234
    Number of processor patches = 4
    Number of processor faces = 924
    Number of boundary faces = 276

Processor 84
    Number of cells = 2808
    Number of faces shared with processor 60 = 228
    Number of faces shared with processor 80 = 234
    Number of faces shared with processor 85 = 228
    Number of faces shared with processor 88 = 234
    Number of processor patches = 4
    Number of processor faces = 924
    Number of boundary faces = 276

Processor 85
    Number of cells = 3852
    Number of faces shared with processor 61 = 180
    Number of faces shared with processor 81 = 321
    Number of faces shared with processor 84 = 228
    Number of faces shared with processor 86 = 264
    Number of faces shared with processor 89 = 321
    Number of processor patches = 5
    Number of processor faces = 1314
    Number of boundary faces = 180

Processor 86
    Number of cells = 3852
    Number of faces shared with processor 62 = 180
    Number of faces shared with processor 82 = 321
    Number of faces shared with processor 85 = 264
    Number of faces shared with processor 87 = 228
    Number of faces shared with processor 90 = 321
    Number of processor patches = 5
    Number of processor faces = 1314
    Number of boundary faces = 180

Processor 87
    Number of cells = 2808
    Number of faces shared with processor 63 = 228
    Number of faces shared with processor 83 = 234
    Number of faces shared with processor 86 = 228
    Number of faces shared with processor 91 = 234
    Number of processor patches = 4
    Number of processor faces = 924
    Number of boundary faces = 276

Processor 88
    Number of cells = 2808
    Number of faces shared with processor 64 = 228
    Number of faces shared with processor 84 = 234
    Number of faces shared with processor 89 = 228
    Number of faces shared with processor 92 = 234
    Number of processor patches = 4
    Number of processor faces = 924
    Number of boundary faces = 276

Processor 89
    Number of cells = 3852
    Number of faces shared with processor 65 = 180
    Number of faces shared with processor 85 = 321
    Number of faces shared with processor 88 = 228
    Number of faces shared with processor 90 = 264
    Number of faces shared with processor 93 = 321
    Number of processor patches = 5
    Number of processor faces = 1314
    Number of boundary faces = 180

Processor 90
    Number of cells = 3852
    Number of faces shared with processor 66 = 180
    Number of faces shared with processor 86 = 321
    Number of faces shared with processor 89 = 264
    Number of faces shared with processor 91 = 228
    Number of faces shared with processor 94 = 321
    Number of processor patches = 5
    Number of processor faces = 1314
    Number of boundary faces = 180

Processor 91
    Number of cells = 2808
    Number of faces shared with processor 67 = 228
    Number of faces shared with processor 87 = 234
    Number of faces shared with processor 90 = 228
    Number of faces shared with processor 95 = 234
    Number of processor patches = 4
    Number of processor faces = 924
    Number of boundary faces = 276

Processor 92
    Number of cells = 2808
    Number of faces shared with processor 68 = 228
    Number of faces shared with processor 88 = 234
    Number of faces shared with processor 93 = 228
    Number of processor patches = 3
    Number of processor faces = 690
    Number of boundary faces = 522

Processor 93
    Number of cells = 3852
    Number of faces shared with processor 69 = 180
    Number of faces shared with processor 89 = 321
    Number of faces shared with processor 92 = 228
    Number of faces shared with processor 94 = 264
    Number of processor patches = 4
    Number of processor faces = 993
    Number of boundary faces = 504

Processor 94
    Number of cells = 3872
    Number of faces shared with processor 70 = 184
    Number of faces shared with processor 90 = 321
    Number of faces shared with processor 93 = 264
    Number of faces shared with processor 95 = 249
    Number of processor patches = 4
    Number of processor faces = 1018
    Number of boundary faces = 509

Processor 95
    Number of cells = 2856
    Number of faces shared with processor 70 = 1
    Number of faces shared with processor 71 = 233
    Number of faces shared with processor 91 = 234
    Number of faces shared with processor 94 = 249
    Number of processor patches = 4
    Number of processor faces = 717
    Number of boundary faces = 531

Number of processor faces = 53429
Max number of cells = 4137 (24.1569% above average 3332.07)
Max number of processor patches = 9 (74.8988% above average 5.14583)
Max number of faces between processors = 1423 (27.8407% above average 1113.1)


Processor 0: field transfer
Processor 1: field transfer
Processor 2: field transfer
Processor 3: field transfer
Processor 4: field transfer
Processor 5: field transfer
Processor 6: field transfer
Processor 7: field transfer
Processor 8: field transfer
Processor 9: field transfer
Processor 10: field transfer
Processor 11: field transfer
Processor 12: field transfer
Processor 13: field transfer
Processor 14: field transfer
Processor 15: field transfer
Processor 16: field transfer
Processor 17: field transfer
Processor 18: field transfer
Processor 19: field transfer
Processor 20: field transfer
Processor 21: field transfer
Processor 22: field transfer
Processor 23: field transfer
Processor 24: field transfer
Processor 25: field transfer
Processor 26: field transfer
Processor 27: field transfer
Processor 28: field transfer
Processor 29: field transfer
Processor 30: field transfer
Processor 31: field transfer
Processor 32: field transfer
Processor 33: field transfer
Processor 34: field transfer
Processor 35: field transfer
Processor 36: field transfer
Processor 37: field transfer
Processor 38: field transfer
Processor 39: field transfer
Processor 40: field transfer
Processor 41: field transfer
Processor 42: field transfer
Processor 43: field transfer
Processor 44: field transfer
Processor 45: field transfer
Processor 46: field transfer
Processor 47: field transfer
Processor 48: field transfer
Processor 49: field transfer
Processor 50: field transfer
Processor 51: field transfer
Processor 52: field transfer
Processor 53: field transfer
Processor 54: field transfer
Processor 55: field transfer
Processor 56: field transfer
Processor 57: field transfer
Processor 58: field transfer
Processor 59: field transfer
Processor 60: field transfer
Processor 61: field transfer
Processor 62: field transfer
Processor 63: field transfer
Processor 64: field transfer
Processor 65: field transfer
Processor 66: field transfer
Processor 67: field transfer
Processor 68: field transfer
Processor 69: field transfer
Processor 70: field transfer
Processor 71: field transfer
Processor 72: field transfer
Processor 73: field transfer
Processor 74: field transfer
Processor 75: field transfer
Processor 76: field transfer
Processor 77: field transfer
Processor 78: field transfer
Processor 79: field transfer
Processor 80: field transfer
Processor 81: field transfer
Processor 82: field transfer
Processor 83: field transfer
Processor 84: field transfer
Processor 85: field transfer
Processor 86: field transfer
Processor 87: field transfer
Processor 88: field transfer
Processor 89: field transfer
Processor 90: field transfer
Processor 91: field transfer
Processor 92: field transfer
Processor 93: field transfer
Processor 94: field transfer
Processor 95: field transfer

End.

